                                  MODFLOW-2005     
      U.S. GEOLOGICAL SURVEY MODULAR FINITE-DIFFERENCE GROUND-WATER FLOW MODEL
                            VERSION 1.8.00 12/18/2009

 LIST FILE: tc1.lst
                         UNIT   11

 OPENING tc1.cbc
 FILE TYPE:DATA(BINARY)   UNIT    9   STATUS:REPLACE
 FORMAT:BINARY                 ACCESS:SEQUENTIAL          

 OPENING tc1.bhd
 FILE TYPE:DATA(BINARY)   UNIT   37   STATUS:REPLACE
 FORMAT:BINARY                 ACCESS:SEQUENTIAL          

 OPENING tc1._os
 FILE TYPE:DATA   UNIT   23   STATUS:REPLACE
 FORMAT:FORMATTED              ACCESS:SEQUENTIAL          
#                                                                                                                                                                                                                                                                                                           
# Input files                                                                                                                                                                                                                                                                                               
#                                                                                                                                                                                                                                                                                                           

 OPENING tc1.dis
 FILE TYPE:DIS   UNIT   12   STATUS:OLD    
 FORMAT:FORMATTED              ACCESS:SEQUENTIAL          

 OPENING tc1.bas
 FILE TYPE:BAS6   UNIT   13   STATUS:OLD    
 FORMAT:FORMATTED              ACCESS:SEQUENTIAL          

 OPENING tc1.oc
 FILE TYPE:OC   UNIT   39   STATUS:OLD    
 FORMAT:FORMATTED              ACCESS:SEQUENTIAL          

 OPENING tc1.pcg
 FILE TYPE:PCG   UNIT   18   STATUS:OLD    
 FORMAT:FORMATTED              ACCESS:SEQUENTIAL          

 OPENING tc1.lpf
 FILE TYPE:LPF   UNIT   14   STATUS:OLD    
 FORMAT:FORMATTED              ACCESS:SEQUENTIAL          

 OPENING tc1.ghb
 FILE TYPE:GHB   UNIT   19   STATUS:OLD    
 FORMAT:FORMATTED              ACCESS:SEQUENTIAL          

 OPENING tc1.wel
 FILE TYPE:WEL   UNIT   20   STATUS:OLD    
 FORMAT:FORMATTED              ACCESS:SEQUENTIAL          

 OPENING tc1.riv
 FILE TYPE:RIV   UNIT   21   STATUS:OLD    
 FORMAT:FORMATTED              ACCESS:SEQUENTIAL          

 OPENING tc1.rch
 FILE TYPE:RCH   UNIT   24   STATUS:OLD    
 FORMAT:FORMATTED              ACCESS:SEQUENTIAL          

 OPENING tc1.zon
 FILE TYPE:ZONE   UNIT   15   STATUS:OLD    
 FORMAT:FORMATTED              ACCESS:SEQUENTIAL          

 OPENING tc1.mlt
 FILE TYPE:MULT   UNIT   16   STATUS:OLD    
 FORMAT:FORMATTED              ACCESS:SEQUENTIAL          

 OPENING tc1.pval
 FILE TYPE:PVAL   UNIT   52   STATUS:OLD    
 FORMAT:FORMATTED              ACCESS:SEQUENTIAL          

 OPENING tc1.obh
 FILE TYPE:HOB   UNIT   22   STATUS:OLD    
 FORMAT:FORMATTED              ACCESS:SEQUENTIAL          

 BAS -- BASIC PACKAGE, VERSION 7, 5/2/2005 INPUT READ FROM UNIT   13

 DISCRETIZATION INPUT DATA READ FROM UNIT   12
 # Discretization File created on 1/28/2009 by ModelMuse version 1.0.9.0.
 # MODULAR MODEL - TWO-LAYER EXAMPLE PROBLEM, TEST CASE TC1
    2 LAYERS        18 ROWS        18 COLUMNS
    5 STRESS PERIOD(S) IN SIMULATION
 MODEL TIME UNIT IS SECONDS
 MODEL LENGTH UNIT IS METERS
  Confining bed flag for each layer:
   1   0

                     DELR =   1000.00    

                     DELC =   1000.00    

 TOP ELEVATION OF LAYER 1 =   150.000    

   MODEL LAYER BOTTOM EL. =   100.000     FOR LAYER   1

 BOT. EL. OF QUASI-3D BED =   90.0000     FOR LAYER   1

   MODEL LAYER BOTTOM EL. =   40.0000     FOR LAYER   2


 STRESS PERIOD     LENGTH       TIME STEPS     MULTIPLIER FOR DELT    SS FLAG
 ----------------------------------------------------------------------------
        1         1.000000          1                    1.000         SS
        2         87162.00          1                    1.000         TR
        3         261486.0          1                    1.000         TR
        4         522972.0          1                    1.000         TR
        5        2.3567450E+07      9                    1.200         TR

 COMBINED STEADY-STATE AND TRANSIENT SIMULATION



 
 # MODULAR MODEL - TWO-LAYER EXAMPLE PROBLEM, TEST CASE TC1                      
 # Basic Package file created on 1/28/2009 by ModelMuse version 1.0.9.0.         
 THE FREE FORMAT OPTION HAS BEEN SELECTED

           BOUNDARY ARRAY =              1 FOR LAYER   1

           BOUNDARY ARRAY =              1 FOR LAYER   2

 AQUIFER HEAD WILL BE SET TO   0.0000     AT ALL NO-FLOW NODES (IBOUND=0).

             INITIAL HEAD =   200.000     FOR LAYER   1

             INITIAL HEAD =   200.000     FOR LAYER   2
 # Output Control file created on 1/28/2009 by ModelMuse version 1.0.9.0.

 OUTPUT CONTROL IS SPECIFIED ONLY AT TIME STEPS FOR WHICH OUTPUT IS DESIRED
 COMPACT CELL-BY-CELL BUDGET FILES WILL BE WRITTEN
 AUXILIARY DATA WILL BE SAVED IN CELL-BY-CELL BUDGET FILES
 HEAD PRINT FORMAT CODE IS -15    DRAWDOWN PRINT FORMAT CODE IS   0
 HEADS WILL BE SAVED ON UNIT   37    DRAWDOWNS WILL BE SAVED ON UNIT    0

 ZONE OPTION, INPUT READ FROM UNIT   15
 # Zone (ZONE) File created on 1/28/2009 by ModelMuse version 1.0.9.0.
    16 ZONE ARRAYS

 MULTIPLIER OPTION, INPUT READ FROM UNIT   16
 # Multiplier (MULT) File created on 1/28/2009 by ModelMuse version 1.0.9.0.
  16 MULTIPLIER ARRAYS

  MULT. ARRAY: SS_1_M1    =  2.000000E-02

  MULT. ARRAY: HK_1_M1    =   1.00000    

  MULT. ARRAY: VERT_AN_M1 =   1.00000    

  MULT. ARRAY: SS_2_M2    =  2.000000E-02



            MULT. ARRAY: HK_2_M2   
 READING ON UNIT   16 WITH FORMAT: (FREE)              

            1           2           3           4           5           6           7           8           9          10
           11          12          13          14          15          16          17          18
 ........................................................................................................................
   1    1.000       1.000       2.000       2.000       3.000       3.000       4.000       4.000       5.000       5.000    
        6.000       6.000       7.000       7.000       8.000       8.000       9.000       9.000    
   2    1.000       1.000       2.000       2.000       3.000       3.000       4.000       4.000       5.000       5.000    
        6.000       6.000       7.000       7.000       8.000       8.000       9.000       9.000    
   3    1.000       1.000       2.000       2.000       3.000       3.000       4.000       4.000       5.000       5.000    
        6.000       6.000       7.000       7.000       8.000       8.000       9.000       9.000    
   4    1.000       1.000       2.000       2.000       3.000       3.000       4.000       4.000       5.000       5.000    
        6.000       6.000       7.000       7.000       8.000       8.000       9.000       9.000    
   5    1.000       1.000       2.000       2.000       3.000       3.000       4.000       4.000       5.000       5.000    
        6.000       6.000       7.000       7.000       8.000       8.000       9.000       9.000    
   6    1.000       1.000       2.000       2.000       3.000       3.000       4.000       4.000       5.000       5.000    
        6.000       6.000       7.000       7.000       8.000       8.000       9.000       9.000    
   7    1.000       1.000       2.000       2.000       3.000       3.000       4.000       4.000       5.000       5.000    
        6.000       6.000       7.000       7.000       8.000       8.000       9.000       9.000    
   8    1.000       1.000       2.000       2.000       3.000       3.000       4.000       4.000       5.000       5.000    
        6.000       6.000       7.000       7.000       8.000       8.000       9.000       9.000    
   9    1.000       1.000       2.000       2.000       3.000       3.000       4.000       4.000       5.000       5.000    
        6.000       6.000       7.000       7.000       8.000       8.000       9.000       9.000    
  10    1.000       1.000       2.000       2.000       3.000       3.000       4.000       4.000       5.000       5.000    
        6.000       6.000       7.000       7.000       8.000       8.000       9.000       9.000    
  11    1.000       1.000       2.000       2.000       3.000       3.000       4.000       4.000       5.000       5.000    
        6.000       6.000       7.000       7.000       8.000       8.000       9.000       9.000    
  12    1.000       1.000       2.000       2.000       3.000       3.000       4.000       4.000       5.000       5.000    
        6.000       6.000       7.000       7.000       8.000       8.000       9.000       9.000    
  13    1.000       1.000       2.000       2.000       3.000       3.000       4.000       4.000       5.000       5.000    
        6.000       6.000       7.000       7.000       8.000       8.000       9.000       9.000    
  14    1.000       1.000       2.000       2.000       3.000       3.000       4.000       4.000       5.000       5.000    
        6.000       6.000       7.000       7.000       8.000       8.000       9.000       9.000    
  15    1.000       1.000       2.000       2.000       3.000       3.000       4.000       4.000       5.000       5.000    
        6.000       6.000       7.000       7.000       8.000       8.000       9.000       9.000    
  16    1.000       1.000       2.000       2.000       3.000       3.000       4.000       4.000       5.000       5.000    
        6.000       6.000       7.000       7.000       8.000       8.000       9.000       9.000    
  17    1.000       1.000       2.000       2.000       3.000       3.000       4.000       4.000       5.000       5.000    
        6.000       6.000       7.000       7.000       8.000       8.000       9.000       9.000    
  18    1.000       1.000       2.000       2.000       3.000       3.000       4.000       4.000       5.000       5.000    
        6.000       6.000       7.000       7.000       8.000       8.000       9.000       9.000    

  MULT. ARRAY: MULT_24    =   1.00000    



            MULT. ARRAY: R_Mult_1  
 READING ON UNIT   16 WITH FORMAT: (FREE)              

            1           2           3           4           5           6           7           8           9          10
           11          12          13          14          15          16          17          18
 ........................................................................................................................
   1   3.1710E-10  3.1710E-10  3.1710E-10  3.1710E-10  3.1710E-10  3.1710E-10  3.1710E-10  3.1710E-10  3.1710E-10   0.000    
        0.000       0.000       0.000       0.000       0.000       0.000       0.000       0.000    
   2   3.1710E-10  3.1710E-10  3.1710E-10  3.1710E-10  3.1710E-10  3.1710E-10  3.1710E-10  3.1710E-10  3.1710E-10   0.000    
        0.000       0.000       0.000       0.000       0.000       0.000       0.000       0.000    
   3   3.1710E-10  3.1710E-10  3.1710E-10  3.1710E-10  3.1710E-10  3.1710E-10  3.1710E-10  3.1710E-10  3.1710E-10   0.000    
        0.000       0.000       0.000       0.000       0.000       0.000       0.000       0.000    
   4   3.1710E-10  3.1710E-10  3.1710E-10  3.1710E-10  3.1710E-10  3.1710E-10  3.1710E-10  3.1710E-10  3.1710E-10   0.000    
        0.000       0.000       0.000       0.000       0.000       0.000       0.000       0.000    
   5   3.1710E-10  3.1710E-10  3.1710E-10  3.1710E-10  3.1710E-10  3.1710E-10  3.1710E-10  3.1710E-10  3.1710E-10   0.000    
        0.000       0.000       0.000       0.000       0.000       0.000       0.000       0.000    
   6   3.1710E-10  3.1710E-10  3.1710E-10  3.1710E-10  3.1710E-10  3.1710E-10  3.1710E-10  3.1710E-10  3.1710E-10   0.000    
        0.000       0.000       0.000       0.000       0.000       0.000       0.000       0.000    
   7   3.1710E-10  3.1710E-10  3.1710E-10  3.1710E-10  3.1710E-10  3.1710E-10  3.1710E-10  3.1710E-10  3.1710E-10   0.000    
        0.000       0.000       0.000       0.000       0.000       0.000       0.000       0.000    
   8   3.1710E-10  3.1710E-10  3.1710E-10  3.1710E-10  3.1710E-10  3.1710E-10  3.1710E-10  3.1710E-10  3.1710E-10   0.000    
        0.000       0.000       0.000       0.000       0.000       0.000       0.000       0.000    
   9   3.1710E-10  3.1710E-10  3.1710E-10  3.1710E-10  3.1710E-10  3.1710E-10  3.1710E-10  3.1710E-10  3.1710E-10   0.000    
        0.000       0.000       0.000       0.000       0.000       0.000       0.000       0.000    
  10   3.1710E-10  3.1710E-10  3.1710E-10  3.1710E-10  3.1710E-10  3.1710E-10  3.1710E-10  3.1710E-10  3.1710E-10   0.000    
        0.000       0.000       0.000       0.000       0.000       0.000       0.000       0.000    
  11   3.1710E-10  3.1710E-10  3.1710E-10  3.1710E-10  3.1710E-10  3.1710E-10  3.1710E-10  3.1710E-10  3.1710E-10   0.000    
        0.000       0.000       0.000       0.000       0.000       0.000       0.000       0.000    
  12   3.1710E-10  3.1710E-10  3.1710E-10  3.1710E-10  3.1710E-10  3.1710E-10  3.1710E-10  3.1710E-10  3.1710E-10   0.000    
        0.000       0.000       0.000       0.000       0.000       0.000       0.000       0.000    
  13   3.1710E-10  3.1710E-10  3.1710E-10  3.1710E-10  3.1710E-10  3.1710E-10  3.1710E-10  3.1710E-10  3.1710E-10   0.000    
        0.000       0.000       0.000       0.000       0.000       0.000       0.000       0.000    
  14   3.1710E-10  3.1710E-10  3.1710E-10  3.1710E-10  3.1710E-10  3.1710E-10  3.1710E-10  3.1710E-10  3.1710E-10   0.000    
        0.000       0.000       0.000       0.000       0.000       0.000       0.000       0.000    
  15   3.1710E-10  3.1710E-10  3.1710E-10  3.1710E-10  3.1710E-10  3.1710E-10  3.1710E-10  3.1710E-10  3.1710E-10   0.000    
        0.000       0.000       0.000       0.000       0.000       0.000       0.000       0.000    
  16   3.1710E-10  3.1710E-10  3.1710E-10  3.1710E-10  3.1710E-10  3.1710E-10  3.1710E-10  3.1710E-10  3.1710E-10   0.000    
        0.000       0.000       0.000       0.000       0.000       0.000       0.000       0.000    
  17   3.1710E-10  3.1710E-10  3.1710E-10  3.1710E-10  3.1710E-10  3.1710E-10  3.1710E-10  3.1710E-10  3.1710E-10   0.000    
        0.000       0.000       0.000       0.000       0.000       0.000       0.000       0.000    
  18   3.1710E-10  3.1710E-10  3.1710E-10  3.1710E-10  3.1710E-10  3.1710E-10  3.1710E-10  3.1710E-10  3.1710E-10   0.000    
        0.000       0.000       0.000       0.000       0.000       0.000       0.000       0.000    



            MULT. ARRAY: R_Mult_2  
 READING ON UNIT   16 WITH FORMAT: (FREE)              

            1           2           3           4           5           6           7           8           9          10
           11          12          13          14          15          16          17          18
 ........................................................................................................................
   1   3.1710E-10  3.1710E-10  3.1710E-10  3.1710E-10  3.1710E-10  3.1710E-10  3.1710E-10  3.1710E-10  3.1710E-10   0.000    
        0.000       0.000       0.000       0.000       0.000       0.000       0.000       0.000    
   2   3.1710E-10  3.1710E-10  3.1710E-10  3.1710E-10  3.1710E-10  3.1710E-10  3.1710E-10  3.1710E-10  3.1710E-10   0.000    
        0.000       0.000       0.000       0.000       0.000       0.000       0.000       0.000    
   3   3.1710E-10  3.1710E-10  3.1710E-10  3.1710E-10  3.1710E-10  3.1710E-10  3.1710E-10  3.1710E-10  3.1710E-10   0.000    
        0.000       0.000       0.000       0.000       0.000       0.000       0.000       0.000    
   4   3.1710E-10  3.1710E-10  3.1710E-10  3.1710E-10  3.1710E-10  3.1710E-10  3.1710E-10  3.1710E-10  3.1710E-10   0.000    
        0.000       0.000       0.000       0.000       0.000       0.000       0.000       0.000    
   5   3.1710E-10  3.1710E-10  3.1710E-10  3.1710E-10  3.1710E-10  3.1710E-10  3.1710E-10  3.1710E-10  3.1710E-10   0.000    
        0.000       0.000       0.000       0.000       0.000       0.000       0.000       0.000    
   6   3.1710E-10  3.1710E-10  3.1710E-10  3.1710E-10  3.1710E-10  3.1710E-10  3.1710E-10  3.1710E-10  3.1710E-10   0.000    
        0.000       0.000       0.000       0.000       0.000       0.000       0.000       0.000    
   7   3.1710E-10  3.1710E-10  3.1710E-10  3.1710E-10  3.1710E-10  3.1710E-10  3.1710E-10  3.1710E-10  3.1710E-10   0.000    
        0.000       0.000       0.000       0.000       0.000       0.000       0.000       0.000    
   8   3.1710E-10  3.1710E-10  3.1710E-10  3.1710E-10  3.1710E-10  3.1710E-10  3.1710E-10  3.1710E-10  3.1710E-10   0.000    
        0.000       0.000       0.000       0.000       0.000       0.000       0.000       0.000    
   9   3.1710E-10  3.1710E-10  3.1710E-10  3.1710E-10  3.1710E-10  3.1710E-10  3.1710E-10  3.1710E-10  3.1710E-10   0.000    
        0.000       0.000       0.000       0.000       0.000       0.000       0.000       0.000    
  10   3.1710E-10  3.1710E-10  3.1710E-10  3.1710E-10  3.1710E-10  3.1710E-10  3.1710E-10  3.1710E-10  3.1710E-10   0.000    
        0.000       0.000       0.000       0.000       0.000       0.000       0.000       0.000    
  11   3.1710E-10  3.1710E-10  3.1710E-10  3.1710E-10  3.1710E-10  3.1710E-10  3.1710E-10  3.1710E-10  3.1710E-10   0.000    
        0.000       0.000       0.000       0.000       0.000       0.000       0.000       0.000    
  12   3.1710E-10  3.1710E-10  3.1710E-10  3.1710E-10  3.1710E-10  3.1710E-10  3.1710E-10  3.1710E-10  3.1710E-10   0.000    
        0.000       0.000       0.000       0.000       0.000       0.000       0.000       0.000    
  13   3.1710E-10  3.1710E-10  3.1710E-10  3.1710E-10  3.1710E-10  3.1710E-10  3.1710E-10  3.1710E-10  3.1710E-10   0.000    
        0.000       0.000       0.000       0.000       0.000       0.000       0.000       0.000    
  14   3.1710E-10  3.1710E-10  3.1710E-10  3.1710E-10  3.1710E-10  3.1710E-10  3.1710E-10  3.1710E-10  3.1710E-10   0.000    
        0.000       0.000       0.000       0.000       0.000       0.000       0.000       0.000    
  15   3.1710E-10  3.1710E-10  3.1710E-10  3.1710E-10  3.1710E-10  3.1710E-10  3.1710E-10  3.1710E-10  3.1710E-10   0.000    
        0.000       0.000       0.000       0.000       0.000       0.000       0.000       0.000    
  16   3.1710E-10  3.1710E-10  3.1710E-10  3.1710E-10  3.1710E-10  3.1710E-10  3.1710E-10  3.1710E-10  3.1710E-10   0.000    
        0.000       0.000       0.000       0.000       0.000       0.000       0.000       0.000    
  17   3.1710E-10  3.1710E-10  3.1710E-10  3.1710E-10  3.1710E-10  3.1710E-10  3.1710E-10  3.1710E-10  3.1710E-10   0.000    
        0.000       0.000       0.000       0.000       0.000       0.000       0.000       0.000    
  18   3.1710E-10  3.1710E-10  3.1710E-10  3.1710E-10  3.1710E-10  3.1710E-10  3.1710E-10  3.1710E-10  3.1710E-10   0.000    
        0.000       0.000       0.000       0.000       0.000       0.000       0.000       0.000    



            MULT. ARRAY: R_Mult_3  
 READING ON UNIT   16 WITH FORMAT: (FREE)              

            1           2           3           4           5           6           7           8           9          10
           11          12          13          14          15          16          17          18
 ........................................................................................................................
   1   3.1710E-10  3.1710E-10  3.1710E-10  3.1710E-10  3.1710E-10  3.1710E-10  3.1710E-10  3.1710E-10  3.1710E-10   0.000    
        0.000       0.000       0.000       0.000       0.000       0.000       0.000       0.000    
   2   3.1710E-10  3.1710E-10  3.1710E-10  3.1710E-10  3.1710E-10  3.1710E-10  3.1710E-10  3.1710E-10  3.1710E-10   0.000    
        0.000       0.000       0.000       0.000       0.000       0.000       0.000       0.000    
   3   3.1710E-10  3.1710E-10  3.1710E-10  3.1710E-10  3.1710E-10  3.1710E-10  3.1710E-10  3.1710E-10  3.1710E-10   0.000    
        0.000       0.000       0.000       0.000       0.000       0.000       0.000       0.000    
   4   3.1710E-10  3.1710E-10  3.1710E-10  3.1710E-10  3.1710E-10  3.1710E-10  3.1710E-10  3.1710E-10  3.1710E-10   0.000    
        0.000       0.000       0.000       0.000       0.000       0.000       0.000       0.000    
   5   3.1710E-10  3.1710E-10  3.1710E-10  3.1710E-10  3.1710E-10  3.1710E-10  3.1710E-10  3.1710E-10  3.1710E-10   0.000    
        0.000       0.000       0.000       0.000       0.000       0.000       0.000       0.000    
   6   3.1710E-10  3.1710E-10  3.1710E-10  3.1710E-10  3.1710E-10  3.1710E-10  3.1710E-10  3.1710E-10  3.1710E-10   0.000    
        0.000       0.000       0.000       0.000       0.000       0.000       0.000       0.000    
   7   3.1710E-10  3.1710E-10  3.1710E-10  3.1710E-10  3.1710E-10  3.1710E-10  3.1710E-10  3.1710E-10  3.1710E-10   0.000    
        0.000       0.000       0.000       0.000       0.000       0.000       0.000       0.000    
   8   3.1710E-10  3.1710E-10  3.1710E-10  3.1710E-10  3.1710E-10  3.1710E-10  3.1710E-10  3.1710E-10  3.1710E-10   0.000    
        0.000       0.000       0.000       0.000       0.000       0.000       0.000       0.000    
   9   3.1710E-10  3.1710E-10  3.1710E-10  3.1710E-10  3.1710E-10  3.1710E-10  3.1710E-10  3.1710E-10  3.1710E-10   0.000    
        0.000       0.000       0.000       0.000       0.000       0.000       0.000       0.000    
  10   3.1710E-10  3.1710E-10  3.1710E-10  3.1710E-10  3.1710E-10  3.1710E-10  3.1710E-10  3.1710E-10  3.1710E-10   0.000    
        0.000       0.000       0.000       0.000       0.000       0.000       0.000       0.000    
  11   3.1710E-10  3.1710E-10  3.1710E-10  3.1710E-10  3.1710E-10  3.1710E-10  3.1710E-10  3.1710E-10  3.1710E-10   0.000    
        0.000       0.000       0.000       0.000       0.000       0.000       0.000       0.000    
  12   3.1710E-10  3.1710E-10  3.1710E-10  3.1710E-10  3.1710E-10  3.1710E-10  3.1710E-10  3.1710E-10  3.1710E-10   0.000    
        0.000       0.000       0.000       0.000       0.000       0.000       0.000       0.000    
  13   3.1710E-10  3.1710E-10  3.1710E-10  3.1710E-10  3.1710E-10  3.1710E-10  3.1710E-10  3.1710E-10  3.1710E-10   0.000    
        0.000       0.000       0.000       0.000       0.000       0.000       0.000       0.000    
  14   3.1710E-10  3.1710E-10  3.1710E-10  3.1710E-10  3.1710E-10  3.1710E-10  3.1710E-10  3.1710E-10  3.1710E-10   0.000    
        0.000       0.000       0.000       0.000       0.000       0.000       0.000       0.000    
  15   3.1710E-10  3.1710E-10  3.1710E-10  3.1710E-10  3.1710E-10  3.1710E-10  3.1710E-10  3.1710E-10  3.1710E-10   0.000    
        0.000       0.000       0.000       0.000       0.000       0.000       0.000       0.000    
  16   3.1710E-10  3.1710E-10  3.1710E-10  3.1710E-10  3.1710E-10  3.1710E-10  3.1710E-10  3.1710E-10  3.1710E-10   0.000    
        0.000       0.000       0.000       0.000       0.000       0.000       0.000       0.000    
  17   3.1710E-10  3.1710E-10  3.1710E-10  3.1710E-10  3.1710E-10  3.1710E-10  3.1710E-10  3.1710E-10  3.1710E-10   0.000    
        0.000       0.000       0.000       0.000       0.000       0.000       0.000       0.000    
  18   3.1710E-10  3.1710E-10  3.1710E-10  3.1710E-10  3.1710E-10  3.1710E-10  3.1710E-10  3.1710E-10  3.1710E-10   0.000    
        0.000       0.000       0.000       0.000       0.000       0.000       0.000       0.000    



            MULT. ARRAY: R_Mult_4  
 READING ON UNIT   16 WITH FORMAT: (FREE)              

            1           2           3           4           5           6           7           8           9          10
           11          12          13          14          15          16          17          18
 ........................................................................................................................
   1   3.1710E-10  3.1710E-10  3.1710E-10  3.1710E-10  3.1710E-10  3.1710E-10  3.1710E-10  3.1710E-10  3.1710E-10   0.000    
        0.000       0.000       0.000       0.000       0.000       0.000       0.000       0.000    
   2   3.1710E-10  3.1710E-10  3.1710E-10  3.1710E-10  3.1710E-10  3.1710E-10  3.1710E-10  3.1710E-10  3.1710E-10   0.000    
        0.000       0.000       0.000       0.000       0.000       0.000       0.000       0.000    
   3   3.1710E-10  3.1710E-10  3.1710E-10  3.1710E-10  3.1710E-10  3.1710E-10  3.1710E-10  3.1710E-10  3.1710E-10   0.000    
        0.000       0.000       0.000       0.000       0.000       0.000       0.000       0.000    
   4   3.1710E-10  3.1710E-10  3.1710E-10  3.1710E-10  3.1710E-10  3.1710E-10  3.1710E-10  3.1710E-10  3.1710E-10   0.000    
        0.000       0.000       0.000       0.000       0.000       0.000       0.000       0.000    
   5   3.1710E-10  3.1710E-10  3.1710E-10  3.1710E-10  3.1710E-10  3.1710E-10  3.1710E-10  3.1710E-10  3.1710E-10   0.000    
        0.000       0.000       0.000       0.000       0.000       0.000       0.000       0.000    
   6   3.1710E-10  3.1710E-10  3.1710E-10  3.1710E-10  3.1710E-10  3.1710E-10  3.1710E-10  3.1710E-10  3.1710E-10   0.000    
        0.000       0.000       0.000       0.000       0.000       0.000       0.000       0.000    
   7   3.1710E-10  3.1710E-10  3.1710E-10  3.1710E-10  3.1710E-10  3.1710E-10  3.1710E-10  3.1710E-10  3.1710E-10   0.000    
        0.000       0.000       0.000       0.000       0.000       0.000       0.000       0.000    
   8   3.1710E-10  3.1710E-10  3.1710E-10  3.1710E-10  3.1710E-10  3.1710E-10  3.1710E-10  3.1710E-10  3.1710E-10   0.000    
        0.000       0.000       0.000       0.000       0.000       0.000       0.000       0.000    
   9   3.1710E-10  3.1710E-10  3.1710E-10  3.1710E-10  3.1710E-10  3.1710E-10  3.1710E-10  3.1710E-10  3.1710E-10   0.000    
        0.000       0.000       0.000       0.000       0.000       0.000       0.000       0.000    
  10   3.1710E-10  3.1710E-10  3.1710E-10  3.1710E-10  3.1710E-10  3.1710E-10  3.1710E-10  3.1710E-10  3.1710E-10   0.000    
        0.000       0.000       0.000       0.000       0.000       0.000       0.000       0.000    
  11   3.1710E-10  3.1710E-10  3.1710E-10  3.1710E-10  3.1710E-10  3.1710E-10  3.1710E-10  3.1710E-10  3.1710E-10   0.000    
        0.000       0.000       0.000       0.000       0.000       0.000       0.000       0.000    
  12   3.1710E-10  3.1710E-10  3.1710E-10  3.1710E-10  3.1710E-10  3.1710E-10  3.1710E-10  3.1710E-10  3.1710E-10   0.000    
        0.000       0.000       0.000       0.000       0.000       0.000       0.000       0.000    
  13   3.1710E-10  3.1710E-10  3.1710E-10  3.1710E-10  3.1710E-10  3.1710E-10  3.1710E-10  3.1710E-10  3.1710E-10   0.000    
        0.000       0.000       0.000       0.000       0.000       0.000       0.000       0.000    
  14   3.1710E-10  3.1710E-10  3.1710E-10  3.1710E-10  3.1710E-10  3.1710E-10  3.1710E-10  3.1710E-10  3.1710E-10   0.000    
        0.000       0.000       0.000       0.000       0.000       0.000       0.000       0.000    
  15   3.1710E-10  3.1710E-10  3.1710E-10  3.1710E-10  3.1710E-10  3.1710E-10  3.1710E-10  3.1710E-10  3.1710E-10   0.000    
        0.000       0.000       0.000       0.000       0.000       0.000       0.000       0.000    
  16   3.1710E-10  3.1710E-10  3.1710E-10  3.1710E-10  3.1710E-10  3.1710E-10  3.1710E-10  3.1710E-10  3.1710E-10   0.000    
        0.000       0.000       0.000       0.000       0.000       0.000       0.000       0.000    
  17   3.1710E-10  3.1710E-10  3.1710E-10  3.1710E-10  3.1710E-10  3.1710E-10  3.1710E-10  3.1710E-10  3.1710E-10   0.000    
        0.000       0.000       0.000       0.000       0.000       0.000       0.000       0.000    
  18   3.1710E-10  3.1710E-10  3.1710E-10  3.1710E-10  3.1710E-10  3.1710E-10  3.1710E-10  3.1710E-10  3.1710E-10   0.000    
        0.000       0.000       0.000       0.000       0.000       0.000       0.000       0.000    



            MULT. ARRAY: R_Mult_5  
 READING ON UNIT   16 WITH FORMAT: (FREE)              

            1           2           3           4           5           6           7           8           9          10
           11          12          13          14          15          16          17          18
 ........................................................................................................................
   1   3.1710E-10  3.1710E-10  3.1710E-10  3.1710E-10  3.1710E-10  3.1710E-10  3.1710E-10  3.1710E-10  3.1710E-10   0.000    
        0.000       0.000       0.000       0.000       0.000       0.000       0.000       0.000    
   2   3.1710E-10  3.1710E-10  3.1710E-10  3.1710E-10  3.1710E-10  3.1710E-10  3.1710E-10  3.1710E-10  3.1710E-10   0.000    
        0.000       0.000       0.000       0.000       0.000       0.000       0.000       0.000    
   3   3.1710E-10  3.1710E-10  3.1710E-10  3.1710E-10  3.1710E-10  3.1710E-10  3.1710E-10  3.1710E-10  3.1710E-10   0.000    
        0.000       0.000       0.000       0.000       0.000       0.000       0.000       0.000    
   4   3.1710E-10  3.1710E-10  3.1710E-10  3.1710E-10  3.1710E-10  3.1710E-10  3.1710E-10  3.1710E-10  3.1710E-10   0.000    
        0.000       0.000       0.000       0.000       0.000       0.000       0.000       0.000    
   5   3.1710E-10  3.1710E-10  3.1710E-10  3.1710E-10  3.1710E-10  3.1710E-10  3.1710E-10  3.1710E-10  3.1710E-10   0.000    
        0.000       0.000       0.000       0.000       0.000       0.000       0.000       0.000    
   6   3.1710E-10  3.1710E-10  3.1710E-10  3.1710E-10  3.1710E-10  3.1710E-10  3.1710E-10  3.1710E-10  3.1710E-10   0.000    
        0.000       0.000       0.000       0.000       0.000       0.000       0.000       0.000    
   7   3.1710E-10  3.1710E-10  3.1710E-10  3.1710E-10  3.1710E-10  3.1710E-10  3.1710E-10  3.1710E-10  3.1710E-10   0.000    
        0.000       0.000       0.000       0.000       0.000       0.000       0.000       0.000    
   8   3.1710E-10  3.1710E-10  3.1710E-10  3.1710E-10  3.1710E-10  3.1710E-10  3.1710E-10  3.1710E-10  3.1710E-10   0.000    
        0.000       0.000       0.000       0.000       0.000       0.000       0.000       0.000    
   9   3.1710E-10  3.1710E-10  3.1710E-10  3.1710E-10  3.1710E-10  3.1710E-10  3.1710E-10  3.1710E-10  3.1710E-10   0.000    
        0.000       0.000       0.000       0.000       0.000       0.000       0.000       0.000    
  10   3.1710E-10  3.1710E-10  3.1710E-10  3.1710E-10  3.1710E-10  3.1710E-10  3.1710E-10  3.1710E-10  3.1710E-10   0.000    
        0.000       0.000       0.000       0.000       0.000       0.000       0.000       0.000    
  11   3.1710E-10  3.1710E-10  3.1710E-10  3.1710E-10  3.1710E-10  3.1710E-10  3.1710E-10  3.1710E-10  3.1710E-10   0.000    
        0.000       0.000       0.000       0.000       0.000       0.000       0.000       0.000    
  12   3.1710E-10  3.1710E-10  3.1710E-10  3.1710E-10  3.1710E-10  3.1710E-10  3.1710E-10  3.1710E-10  3.1710E-10   0.000    
        0.000       0.000       0.000       0.000       0.000       0.000       0.000       0.000    
  13   3.1710E-10  3.1710E-10  3.1710E-10  3.1710E-10  3.1710E-10  3.1710E-10  3.1710E-10  3.1710E-10  3.1710E-10   0.000    
        0.000       0.000       0.000       0.000       0.000       0.000       0.000       0.000    
  14   3.1710E-10  3.1710E-10  3.1710E-10  3.1710E-10  3.1710E-10  3.1710E-10  3.1710E-10  3.1710E-10  3.1710E-10   0.000    
        0.000       0.000       0.000       0.000       0.000       0.000       0.000       0.000    
  15   3.1710E-10  3.1710E-10  3.1710E-10  3.1710E-10  3.1710E-10  3.1710E-10  3.1710E-10  3.1710E-10  3.1710E-10   0.000    
        0.000       0.000       0.000       0.000       0.000       0.000       0.000       0.000    
  16   3.1710E-10  3.1710E-10  3.1710E-10  3.1710E-10  3.1710E-10  3.1710E-10  3.1710E-10  3.1710E-10  3.1710E-10   0.000    
        0.000       0.000       0.000       0.000       0.000       0.000       0.000       0.000    
  17   3.1710E-10  3.1710E-10  3.1710E-10  3.1710E-10  3.1710E-10  3.1710E-10  3.1710E-10  3.1710E-10  3.1710E-10   0.000    
        0.000       0.000       0.000       0.000       0.000       0.000       0.000       0.000    
  18   3.1710E-10  3.1710E-10  3.1710E-10  3.1710E-10  3.1710E-10  3.1710E-10  3.1710E-10  3.1710E-10  3.1710E-10   0.000    
        0.000       0.000       0.000       0.000       0.000       0.000       0.000       0.000    



            MULT. ARRAY: R_Mult_6  
 READING ON UNIT   16 WITH FORMAT: (FREE)              

            1           2           3           4           5           6           7           8           9          10
           11          12          13          14          15          16          17          18
 ........................................................................................................................
   1    0.000       0.000       0.000       0.000       0.000       0.000       0.000       0.000       0.000      3.1710E-10
       3.1710E-10  3.1710E-10  3.1710E-10  3.1710E-10  3.1710E-10  3.1710E-10  3.1710E-10  3.1710E-10
   2    0.000       0.000       0.000       0.000       0.000       0.000       0.000       0.000       0.000      3.1710E-10
       3.1710E-10  3.1710E-10  3.1710E-10  3.1710E-10  3.1710E-10  3.1710E-10  3.1710E-10  3.1710E-10
   3    0.000       0.000       0.000       0.000       0.000       0.000       0.000       0.000       0.000      3.1710E-10
       3.1710E-10  3.1710E-10  3.1710E-10  3.1710E-10  3.1710E-10  3.1710E-10  3.1710E-10  3.1710E-10
   4    0.000       0.000       0.000       0.000       0.000       0.000       0.000       0.000       0.000      3.1710E-10
       3.1710E-10  3.1710E-10  3.1710E-10  3.1710E-10  3.1710E-10  3.1710E-10  3.1710E-10  3.1710E-10
   5    0.000       0.000       0.000       0.000       0.000       0.000       0.000       0.000       0.000      3.1710E-10
       3.1710E-10  3.1710E-10  3.1710E-10  3.1710E-10  3.1710E-10  3.1710E-10  3.1710E-10  3.1710E-10
   6    0.000       0.000       0.000       0.000       0.000       0.000       0.000       0.000       0.000      3.1710E-10
       3.1710E-10  3.1710E-10  3.1710E-10  3.1710E-10  3.1710E-10  3.1710E-10  3.1710E-10  3.1710E-10
   7    0.000       0.000       0.000       0.000       0.000       0.000       0.000       0.000       0.000      3.1710E-10
       3.1710E-10  3.1710E-10  3.1710E-10  3.1710E-10  3.1710E-10  3.1710E-10  3.1710E-10  3.1710E-10
   8    0.000       0.000       0.000       0.000       0.000       0.000       0.000       0.000       0.000      3.1710E-10
       3.1710E-10  3.1710E-10  3.1710E-10  3.1710E-10  3.1710E-10  3.1710E-10  3.1710E-10  3.1710E-10
   9    0.000       0.000       0.000       0.000       0.000       0.000       0.000       0.000       0.000      3.1710E-10
       3.1710E-10  3.1710E-10  3.1710E-10  3.1710E-10  3.1710E-10  3.1710E-10  3.1710E-10  3.1710E-10
  10    0.000       0.000       0.000       0.000       0.000       0.000       0.000       0.000       0.000      3.1710E-10
       3.1710E-10  3.1710E-10  3.1710E-10  3.1710E-10  3.1710E-10  3.1710E-10  3.1710E-10  3.1710E-10
  11    0.000       0.000       0.000       0.000       0.000       0.000       0.000       0.000       0.000      3.1710E-10
       3.1710E-10  3.1710E-10  3.1710E-10  3.1710E-10  3.1710E-10  3.1710E-10  3.1710E-10  3.1710E-10
  12    0.000       0.000       0.000       0.000       0.000       0.000       0.000       0.000       0.000      3.1710E-10
       3.1710E-10  3.1710E-10  3.1710E-10  3.1710E-10  3.1710E-10  3.1710E-10  3.1710E-10  3.1710E-10
  13    0.000       0.000       0.000       0.000       0.000       0.000       0.000       0.000       0.000      3.1710E-10
       3.1710E-10  3.1710E-10  3.1710E-10  3.1710E-10  3.1710E-10  3.1710E-10  3.1710E-10  3.1710E-10
  14    0.000       0.000       0.000       0.000       0.000       0.000       0.000       0.000       0.000      3.1710E-10
       3.1710E-10  3.1710E-10  3.1710E-10  3.1710E-10  3.1710E-10  3.1710E-10  3.1710E-10  3.1710E-10
  15    0.000       0.000       0.000       0.000       0.000       0.000       0.000       0.000       0.000      3.1710E-10
       3.1710E-10  3.1710E-10  3.1710E-10  3.1710E-10  3.1710E-10  3.1710E-10  3.1710E-10  3.1710E-10
  16    0.000       0.000       0.000       0.000       0.000       0.000       0.000       0.000       0.000      3.1710E-10
       3.1710E-10  3.1710E-10  3.1710E-10  3.1710E-10  3.1710E-10  3.1710E-10  3.1710E-10  3.1710E-10
  17    0.000       0.000       0.000       0.000       0.000       0.000       0.000       0.000       0.000      3.1710E-10
       3.1710E-10  3.1710E-10  3.1710E-10  3.1710E-10  3.1710E-10  3.1710E-10  3.1710E-10  3.1710E-10
  18    0.000       0.000       0.000       0.000       0.000       0.000       0.000       0.000       0.000      3.1710E-10
       3.1710E-10  3.1710E-10  3.1710E-10  3.1710E-10  3.1710E-10  3.1710E-10  3.1710E-10  3.1710E-10



            MULT. ARRAY: R_Mult_7  
 READING ON UNIT   16 WITH FORMAT: (FREE)              

            1           2           3           4           5           6           7           8           9          10
           11          12          13          14          15          16          17          18
 ........................................................................................................................
   1    0.000       0.000       0.000       0.000       0.000       0.000       0.000       0.000       0.000      3.1710E-10
       3.1710E-10  3.1710E-10  3.1710E-10  3.1710E-10  3.1710E-10  3.1710E-10  3.1710E-10  3.1710E-10
   2    0.000       0.000       0.000       0.000       0.000       0.000       0.000       0.000       0.000      3.1710E-10
       3.1710E-10  3.1710E-10  3.1710E-10  3.1710E-10  3.1710E-10  3.1710E-10  3.1710E-10  3.1710E-10
   3    0.000       0.000       0.000       0.000       0.000       0.000       0.000       0.000       0.000      3.1710E-10
       3.1710E-10  3.1710E-10  3.1710E-10  3.1710E-10  3.1710E-10  3.1710E-10  3.1710E-10  3.1710E-10
   4    0.000       0.000       0.000       0.000       0.000       0.000       0.000       0.000       0.000      3.1710E-10
       3.1710E-10  3.1710E-10  3.1710E-10  3.1710E-10  3.1710E-10  3.1710E-10  3.1710E-10  3.1710E-10
   5    0.000       0.000       0.000       0.000       0.000       0.000       0.000       0.000       0.000      3.1710E-10
       3.1710E-10  3.1710E-10  3.1710E-10  3.1710E-10  3.1710E-10  3.1710E-10  3.1710E-10  3.1710E-10
   6    0.000       0.000       0.000       0.000       0.000       0.000       0.000       0.000       0.000      3.1710E-10
       3.1710E-10  3.1710E-10  3.1710E-10  3.1710E-10  3.1710E-10  3.1710E-10  3.1710E-10  3.1710E-10
   7    0.000       0.000       0.000       0.000       0.000       0.000       0.000       0.000       0.000      3.1710E-10
       3.1710E-10  3.1710E-10  3.1710E-10  3.1710E-10  3.1710E-10  3.1710E-10  3.1710E-10  3.1710E-10
   8    0.000       0.000       0.000       0.000       0.000       0.000       0.000       0.000       0.000      3.1710E-10
       3.1710E-10  3.1710E-10  3.1710E-10  3.1710E-10  3.1710E-10  3.1710E-10  3.1710E-10  3.1710E-10
   9    0.000       0.000       0.000       0.000       0.000       0.000       0.000       0.000       0.000      3.1710E-10
       3.1710E-10  3.1710E-10  3.1710E-10  3.1710E-10  3.1710E-10  3.1710E-10  3.1710E-10  3.1710E-10
  10    0.000       0.000       0.000       0.000       0.000       0.000       0.000       0.000       0.000      3.1710E-10
       3.1710E-10  3.1710E-10  3.1710E-10  3.1710E-10  3.1710E-10  3.1710E-10  3.1710E-10  3.1710E-10
  11    0.000       0.000       0.000       0.000       0.000       0.000       0.000       0.000       0.000      3.1710E-10
       3.1710E-10  3.1710E-10  3.1710E-10  3.1710E-10  3.1710E-10  3.1710E-10  3.1710E-10  3.1710E-10
  12    0.000       0.000       0.000       0.000       0.000       0.000       0.000       0.000       0.000      3.1710E-10
       3.1710E-10  3.1710E-10  3.1710E-10  3.1710E-10  3.1710E-10  3.1710E-10  3.1710E-10  3.1710E-10
  13    0.000       0.000       0.000       0.000       0.000       0.000       0.000       0.000       0.000      3.1710E-10
       3.1710E-10  3.1710E-10  3.1710E-10  3.1710E-10  3.1710E-10  3.1710E-10  3.1710E-10  3.1710E-10
  14    0.000       0.000       0.000       0.000       0.000       0.000       0.000       0.000       0.000      3.1710E-10
       3.1710E-10  3.1710E-10  3.1710E-10  3.1710E-10  3.1710E-10  3.1710E-10  3.1710E-10  3.1710E-10
  15    0.000       0.000       0.000       0.000       0.000       0.000       0.000       0.000       0.000      3.1710E-10
       3.1710E-10  3.1710E-10  3.1710E-10  3.1710E-10  3.1710E-10  3.1710E-10  3.1710E-10  3.1710E-10
  16    0.000       0.000       0.000       0.000       0.000       0.000       0.000       0.000       0.000      3.1710E-10
       3.1710E-10  3.1710E-10  3.1710E-10  3.1710E-10  3.1710E-10  3.1710E-10  3.1710E-10  3.1710E-10
  17    0.000       0.000       0.000       0.000       0.000       0.000       0.000       0.000       0.000      3.1710E-10
       3.1710E-10  3.1710E-10  3.1710E-10  3.1710E-10  3.1710E-10  3.1710E-10  3.1710E-10  3.1710E-10
  18    0.000       0.000       0.000       0.000       0.000       0.000       0.000       0.000       0.000      3.1710E-10
       3.1710E-10  3.1710E-10  3.1710E-10  3.1710E-10  3.1710E-10  3.1710E-10  3.1710E-10  3.1710E-10



            MULT. ARRAY: R_Mult_8  
 READING ON UNIT   16 WITH FORMAT: (FREE)              

            1           2           3           4           5           6           7           8           9          10
           11          12          13          14          15          16          17          18
 ........................................................................................................................
   1    0.000       0.000       0.000       0.000       0.000       0.000       0.000       0.000       0.000      3.1710E-10
       3.1710E-10  3.1710E-10  3.1710E-10  3.1710E-10  3.1710E-10  3.1710E-10  3.1710E-10  3.1710E-10
   2    0.000       0.000       0.000       0.000       0.000       0.000       0.000       0.000       0.000      3.1710E-10
       3.1710E-10  3.1710E-10  3.1710E-10  3.1710E-10  3.1710E-10  3.1710E-10  3.1710E-10  3.1710E-10
   3    0.000       0.000       0.000       0.000       0.000       0.000       0.000       0.000       0.000      3.1710E-10
       3.1710E-10  3.1710E-10  3.1710E-10  3.1710E-10  3.1710E-10  3.1710E-10  3.1710E-10  3.1710E-10
   4    0.000       0.000       0.000       0.000       0.000       0.000       0.000       0.000       0.000      3.1710E-10
       3.1710E-10  3.1710E-10  3.1710E-10  3.1710E-10  3.1710E-10  3.1710E-10  3.1710E-10  3.1710E-10
   5    0.000       0.000       0.000       0.000       0.000       0.000       0.000       0.000       0.000      3.1710E-10
       3.1710E-10  3.1710E-10  3.1710E-10  3.1710E-10  3.1710E-10  3.1710E-10  3.1710E-10  3.1710E-10
   6    0.000       0.000       0.000       0.000       0.000       0.000       0.000       0.000       0.000      3.1710E-10
       3.1710E-10  3.1710E-10  3.1710E-10  3.1710E-10  3.1710E-10  3.1710E-10  3.1710E-10  3.1710E-10
   7    0.000       0.000       0.000       0.000       0.000       0.000       0.000       0.000       0.000      3.1710E-10
       3.1710E-10  3.1710E-10  3.1710E-10  3.1710E-10  3.1710E-10  3.1710E-10  3.1710E-10  3.1710E-10
   8    0.000       0.000       0.000       0.000       0.000       0.000       0.000       0.000       0.000      3.1710E-10
       3.1710E-10  3.1710E-10  3.1710E-10  3.1710E-10  3.1710E-10  3.1710E-10  3.1710E-10  3.1710E-10
   9    0.000       0.000       0.000       0.000       0.000       0.000       0.000       0.000       0.000      3.1710E-10
       3.1710E-10  3.1710E-10  3.1710E-10  3.1710E-10  3.1710E-10  3.1710E-10  3.1710E-10  3.1710E-10
  10    0.000       0.000       0.000       0.000       0.000       0.000       0.000       0.000       0.000      3.1710E-10
       3.1710E-10  3.1710E-10  3.1710E-10  3.1710E-10  3.1710E-10  3.1710E-10  3.1710E-10  3.1710E-10
  11    0.000       0.000       0.000       0.000       0.000       0.000       0.000       0.000       0.000      3.1710E-10
       3.1710E-10  3.1710E-10  3.1710E-10  3.1710E-10  3.1710E-10  3.1710E-10  3.1710E-10  3.1710E-10
  12    0.000       0.000       0.000       0.000       0.000       0.000       0.000       0.000       0.000      3.1710E-10
       3.1710E-10  3.1710E-10  3.1710E-10  3.1710E-10  3.1710E-10  3.1710E-10  3.1710E-10  3.1710E-10
  13    0.000       0.000       0.000       0.000       0.000       0.000       0.000       0.000       0.000      3.1710E-10
       3.1710E-10  3.1710E-10  3.1710E-10  3.1710E-10  3.1710E-10  3.1710E-10  3.1710E-10  3.1710E-10
  14    0.000       0.000       0.000       0.000       0.000       0.000       0.000       0.000       0.000      3.1710E-10
       3.1710E-10  3.1710E-10  3.1710E-10  3.1710E-10  3.1710E-10  3.1710E-10  3.1710E-10  3.1710E-10
  15    0.000       0.000       0.000       0.000       0.000       0.000       0.000       0.000       0.000      3.1710E-10
       3.1710E-10  3.1710E-10  3.1710E-10  3.1710E-10  3.1710E-10  3.1710E-10  3.1710E-10  3.1710E-10
  16    0.000       0.000       0.000       0.000       0.000       0.000       0.000       0.000       0.000      3.1710E-10
       3.1710E-10  3.1710E-10  3.1710E-10  3.1710E-10  3.1710E-10  3.1710E-10  3.1710E-10  3.1710E-10
  17    0.000       0.000       0.000       0.000       0.000       0.000       0.000       0.000       0.000      3.1710E-10
       3.1710E-10  3.1710E-10  3.1710E-10  3.1710E-10  3.1710E-10  3.1710E-10  3.1710E-10  3.1710E-10
  18    0.000       0.000       0.000       0.000       0.000       0.000       0.000       0.000       0.000      3.1710E-10
       3.1710E-10  3.1710E-10  3.1710E-10  3.1710E-10  3.1710E-10  3.1710E-10  3.1710E-10  3.1710E-10



            MULT. ARRAY: R_Mult_9  
 READING ON UNIT   16 WITH FORMAT: (FREE)              

            1           2           3           4           5           6           7           8           9          10
           11          12          13          14          15          16          17          18
 ........................................................................................................................
   1    0.000       0.000       0.000       0.000       0.000       0.000       0.000       0.000       0.000      3.1710E-10
       3.1710E-10  3.1710E-10  3.1710E-10  3.1710E-10  3.1710E-10  3.1710E-10  3.1710E-10  3.1710E-10
   2    0.000       0.000       0.000       0.000       0.000       0.000       0.000       0.000       0.000      3.1710E-10
       3.1710E-10  3.1710E-10  3.1710E-10  3.1710E-10  3.1710E-10  3.1710E-10  3.1710E-10  3.1710E-10
   3    0.000       0.000       0.000       0.000       0.000       0.000       0.000       0.000       0.000      3.1710E-10
       3.1710E-10  3.1710E-10  3.1710E-10  3.1710E-10  3.1710E-10  3.1710E-10  3.1710E-10  3.1710E-10
   4    0.000       0.000       0.000       0.000       0.000       0.000       0.000       0.000       0.000      3.1710E-10
       3.1710E-10  3.1710E-10  3.1710E-10  3.1710E-10  3.1710E-10  3.1710E-10  3.1710E-10  3.1710E-10
   5    0.000       0.000       0.000       0.000       0.000       0.000       0.000       0.000       0.000      3.1710E-10
       3.1710E-10  3.1710E-10  3.1710E-10  3.1710E-10  3.1710E-10  3.1710E-10  3.1710E-10  3.1710E-10
   6    0.000       0.000       0.000       0.000       0.000       0.000       0.000       0.000       0.000      3.1710E-10
       3.1710E-10  3.1710E-10  3.1710E-10  3.1710E-10  3.1710E-10  3.1710E-10  3.1710E-10  3.1710E-10
   7    0.000       0.000       0.000       0.000       0.000       0.000       0.000       0.000       0.000      3.1710E-10
       3.1710E-10  3.1710E-10  3.1710E-10  3.1710E-10  3.1710E-10  3.1710E-10  3.1710E-10  3.1710E-10
   8    0.000       0.000       0.000       0.000       0.000       0.000       0.000       0.000       0.000      3.1710E-10
       3.1710E-10  3.1710E-10  3.1710E-10  3.1710E-10  3.1710E-10  3.1710E-10  3.1710E-10  3.1710E-10
   9    0.000       0.000       0.000       0.000       0.000       0.000       0.000       0.000       0.000      3.1710E-10
       3.1710E-10  3.1710E-10  3.1710E-10  3.1710E-10  3.1710E-10  3.1710E-10  3.1710E-10  3.1710E-10
  10    0.000       0.000       0.000       0.000       0.000       0.000       0.000       0.000       0.000      3.1710E-10
       3.1710E-10  3.1710E-10  3.1710E-10  3.1710E-10  3.1710E-10  3.1710E-10  3.1710E-10  3.1710E-10
  11    0.000       0.000       0.000       0.000       0.000       0.000       0.000       0.000       0.000      3.1710E-10
       3.1710E-10  3.1710E-10  3.1710E-10  3.1710E-10  3.1710E-10  3.1710E-10  3.1710E-10  3.1710E-10
  12    0.000       0.000       0.000       0.000       0.000       0.000       0.000       0.000       0.000      3.1710E-10
       3.1710E-10  3.1710E-10  3.1710E-10  3.1710E-10  3.1710E-10  3.1710E-10  3.1710E-10  3.1710E-10
  13    0.000       0.000       0.000       0.000       0.000       0.000       0.000       0.000       0.000      3.1710E-10
       3.1710E-10  3.1710E-10  3.1710E-10  3.1710E-10  3.1710E-10  3.1710E-10  3.1710E-10  3.1710E-10
  14    0.000       0.000       0.000       0.000       0.000       0.000       0.000       0.000       0.000      3.1710E-10
       3.1710E-10  3.1710E-10  3.1710E-10  3.1710E-10  3.1710E-10  3.1710E-10  3.1710E-10  3.1710E-10
  15    0.000       0.000       0.000       0.000       0.000       0.000       0.000       0.000       0.000      3.1710E-10
       3.1710E-10  3.1710E-10  3.1710E-10  3.1710E-10  3.1710E-10  3.1710E-10  3.1710E-10  3.1710E-10
  16    0.000       0.000       0.000       0.000       0.000       0.000       0.000       0.000       0.000      3.1710E-10
       3.1710E-10  3.1710E-10  3.1710E-10  3.1710E-10  3.1710E-10  3.1710E-10  3.1710E-10  3.1710E-10
  17    0.000       0.000       0.000       0.000       0.000       0.000       0.000       0.000       0.000      3.1710E-10
       3.1710E-10  3.1710E-10  3.1710E-10  3.1710E-10  3.1710E-10  3.1710E-10  3.1710E-10  3.1710E-10
  18    0.000       0.000       0.000       0.000       0.000       0.000       0.000       0.000       0.000      3.1710E-10
       3.1710E-10  3.1710E-10  3.1710E-10  3.1710E-10  3.1710E-10  3.1710E-10  3.1710E-10  3.1710E-10



            MULT. ARRAY: R_Mult_10 
 READING ON UNIT   16 WITH FORMAT: (FREE)              

            1           2           3           4           5           6           7           8           9          10
           11          12          13          14          15          16          17          18
 ........................................................................................................................
   1    0.000       0.000       0.000       0.000       0.000       0.000       0.000       0.000       0.000      3.1710E-10
       3.1710E-10  3.1710E-10  3.1710E-10  3.1710E-10  3.1710E-10  3.1710E-10  3.1710E-10  3.1710E-10
   2    0.000       0.000       0.000       0.000       0.000       0.000       0.000       0.000       0.000      3.1710E-10
       3.1710E-10  3.1710E-10  3.1710E-10  3.1710E-10  3.1710E-10  3.1710E-10  3.1710E-10  3.1710E-10
   3    0.000       0.000       0.000       0.000       0.000       0.000       0.000       0.000       0.000      3.1710E-10
       3.1710E-10  3.1710E-10  3.1710E-10  3.1710E-10  3.1710E-10  3.1710E-10  3.1710E-10  3.1710E-10
   4    0.000       0.000       0.000       0.000       0.000       0.000       0.000       0.000       0.000      3.1710E-10
       3.1710E-10  3.1710E-10  3.1710E-10  3.1710E-10  3.1710E-10  3.1710E-10  3.1710E-10  3.1710E-10
   5    0.000       0.000       0.000       0.000       0.000       0.000       0.000       0.000       0.000      3.1710E-10
       3.1710E-10  3.1710E-10  3.1710E-10  3.1710E-10  3.1710E-10  3.1710E-10  3.1710E-10  3.1710E-10
   6    0.000       0.000       0.000       0.000       0.000       0.000       0.000       0.000       0.000      3.1710E-10
       3.1710E-10  3.1710E-10  3.1710E-10  3.1710E-10  3.1710E-10  3.1710E-10  3.1710E-10  3.1710E-10
   7    0.000       0.000       0.000       0.000       0.000       0.000       0.000       0.000       0.000      3.1710E-10
       3.1710E-10  3.1710E-10  3.1710E-10  3.1710E-10  3.1710E-10  3.1710E-10  3.1710E-10  3.1710E-10
   8    0.000       0.000       0.000       0.000       0.000       0.000       0.000       0.000       0.000      3.1710E-10
       3.1710E-10  3.1710E-10  3.1710E-10  3.1710E-10  3.1710E-10  3.1710E-10  3.1710E-10  3.1710E-10
   9    0.000       0.000       0.000       0.000       0.000       0.000       0.000       0.000       0.000      3.1710E-10
       3.1710E-10  3.1710E-10  3.1710E-10  3.1710E-10  3.1710E-10  3.1710E-10  3.1710E-10  3.1710E-10
  10    0.000       0.000       0.000       0.000       0.000       0.000       0.000       0.000       0.000      3.1710E-10
       3.1710E-10  3.1710E-10  3.1710E-10  3.1710E-10  3.1710E-10  3.1710E-10  3.1710E-10  3.1710E-10
  11    0.000       0.000       0.000       0.000       0.000       0.000       0.000       0.000       0.000      3.1710E-10
       3.1710E-10  3.1710E-10  3.1710E-10  3.1710E-10  3.1710E-10  3.1710E-10  3.1710E-10  3.1710E-10
  12    0.000       0.000       0.000       0.000       0.000       0.000       0.000       0.000       0.000      3.1710E-10
       3.1710E-10  3.1710E-10  3.1710E-10  3.1710E-10  3.1710E-10  3.1710E-10  3.1710E-10  3.1710E-10
  13    0.000       0.000       0.000       0.000       0.000       0.000       0.000       0.000       0.000      3.1710E-10
       3.1710E-10  3.1710E-10  3.1710E-10  3.1710E-10  3.1710E-10  3.1710E-10  3.1710E-10  3.1710E-10
  14    0.000       0.000       0.000       0.000       0.000       0.000       0.000       0.000       0.000      3.1710E-10
       3.1710E-10  3.1710E-10  3.1710E-10  3.1710E-10  3.1710E-10  3.1710E-10  3.1710E-10  3.1710E-10
  15    0.000       0.000       0.000       0.000       0.000       0.000       0.000       0.000       0.000      3.1710E-10
       3.1710E-10  3.1710E-10  3.1710E-10  3.1710E-10  3.1710E-10  3.1710E-10  3.1710E-10  3.1710E-10
  16    0.000       0.000       0.000       0.000       0.000       0.000       0.000       0.000       0.000      3.1710E-10
       3.1710E-10  3.1710E-10  3.1710E-10  3.1710E-10  3.1710E-10  3.1710E-10  3.1710E-10  3.1710E-10
  17    0.000       0.000       0.000       0.000       0.000       0.000       0.000       0.000       0.000      3.1710E-10
       3.1710E-10  3.1710E-10  3.1710E-10  3.1710E-10  3.1710E-10  3.1710E-10  3.1710E-10  3.1710E-10
  18    0.000       0.000       0.000       0.000       0.000       0.000       0.000       0.000       0.000      3.1710E-10
       3.1710E-10  3.1710E-10  3.1710E-10  3.1710E-10  3.1710E-10  3.1710E-10  3.1710E-10  3.1710E-10

   ZONE ARRAY: SS_1_Z1    =              1

   ZONE ARRAY: HK_1_Z1    =              1

   ZONE ARRAY: VERT_AN_Z1 =              1

   ZONE ARRAY: SS_2_Z2    =              1

   ZONE ARRAY: HK_2_Z2    =              1

   ZONE ARRAY: ZONE_22    =              1



             ZONE ARRAY: R_Zone_1  
 READING ON UNIT   15 WITH FORMAT: (FREE)              

          1     2     3     4     5     6     7     8     9    10    11    12    13    14    15    16    17    18
 ................................................................................................................
   1      1     1     1     1     1     1     1     1     1     0     0     0     0     0     0     0     0     0
   2      1     1     1     1     1     1     1     1     1     0     0     0     0     0     0     0     0     0
   3      1     1     1     1     1     1     1     1     1     0     0     0     0     0     0     0     0     0
   4      1     1     1     1     1     1     1     1     1     0     0     0     0     0     0     0     0     0
   5      1     1     1     1     1     1     1     1     1     0     0     0     0     0     0     0     0     0
   6      1     1     1     1     1     1     1     1     1     0     0     0     0     0     0     0     0     0
   7      1     1     1     1     1     1     1     1     1     0     0     0     0     0     0     0     0     0
   8      1     1     1     1     1     1     1     1     1     0     0     0     0     0     0     0     0     0
   9      1     1     1     1     1     1     1     1     1     0     0     0     0     0     0     0     0     0
  10      1     1     1     1     1     1     1     1     1     0     0     0     0     0     0     0     0     0
  11      1     1     1     1     1     1     1     1     1     0     0     0     0     0     0     0     0     0
  12      1     1     1     1     1     1     1     1     1     0     0     0     0     0     0     0     0     0
  13      1     1     1     1     1     1     1     1     1     0     0     0     0     0     0     0     0     0
  14      1     1     1     1     1     1     1     1     1     0     0     0     0     0     0     0     0     0
  15      1     1     1     1     1     1     1     1     1     0     0     0     0     0     0     0     0     0
  16      1     1     1     1     1     1     1     1     1     0     0     0     0     0     0     0     0     0
  17      1     1     1     1     1     1     1     1     1     0     0     0     0     0     0     0     0     0
  18      1     1     1     1     1     1     1     1     1     0     0     0     0     0     0     0     0     0



             ZONE ARRAY: R_Zone_2  
 READING ON UNIT   15 WITH FORMAT: (FREE)              

          1     2     3     4     5     6     7     8     9    10    11    12    13    14    15    16    17    18
 ................................................................................................................
   1      1     1     1     1     1     1     1     1     1     0     0     0     0     0     0     0     0     0
   2      1     1     1     1     1     1     1     1     1     0     0     0     0     0     0     0     0     0
   3      1     1     1     1     1     1     1     1     1     0     0     0     0     0     0     0     0     0
   4      1     1     1     1     1     1     1     1     1     0     0     0     0     0     0     0     0     0
   5      1     1     1     1     1     1     1     1     1     0     0     0     0     0     0     0     0     0
   6      1     1     1     1     1     1     1     1     1     0     0     0     0     0     0     0     0     0
   7      1     1     1     1     1     1     1     1     1     0     0     0     0     0     0     0     0     0
   8      1     1     1     1     1     1     1     1     1     0     0     0     0     0     0     0     0     0
   9      1     1     1     1     1     1     1     1     1     0     0     0     0     0     0     0     0     0
  10      1     1     1     1     1     1     1     1     1     0     0     0     0     0     0     0     0     0
  11      1     1     1     1     1     1     1     1     1     0     0     0     0     0     0     0     0     0
  12      1     1     1     1     1     1     1     1     1     0     0     0     0     0     0     0     0     0
  13      1     1     1     1     1     1     1     1     1     0     0     0     0     0     0     0     0     0
  14      1     1     1     1     1     1     1     1     1     0     0     0     0     0     0     0     0     0
  15      1     1     1     1     1     1     1     1     1     0     0     0     0     0     0     0     0     0
  16      1     1     1     1     1     1     1     1     1     0     0     0     0     0     0     0     0     0
  17      1     1     1     1     1     1     1     1     1     0     0     0     0     0     0     0     0     0
  18      1     1     1     1     1     1     1     1     1     0     0     0     0     0     0     0     0     0



             ZONE ARRAY: R_Zone_3  
 READING ON UNIT   15 WITH FORMAT: (FREE)              

          1     2     3     4     5     6     7     8     9    10    11    12    13    14    15    16    17    18
 ................................................................................................................
   1      1     1     1     1     1     1     1     1     1     0     0     0     0     0     0     0     0     0
   2      1     1     1     1     1     1     1     1     1     0     0     0     0     0     0     0     0     0
   3      1     1     1     1     1     1     1     1     1     0     0     0     0     0     0     0     0     0
   4      1     1     1     1     1     1     1     1     1     0     0     0     0     0     0     0     0     0
   5      1     1     1     1     1     1     1     1     1     0     0     0     0     0     0     0     0     0
   6      1     1     1     1     1     1     1     1     1     0     0     0     0     0     0     0     0     0
   7      1     1     1     1     1     1     1     1     1     0     0     0     0     0     0     0     0     0
   8      1     1     1     1     1     1     1     1     1     0     0     0     0     0     0     0     0     0
   9      1     1     1     1     1     1     1     1     1     0     0     0     0     0     0     0     0     0
  10      1     1     1     1     1     1     1     1     1     0     0     0     0     0     0     0     0     0
  11      1     1     1     1     1     1     1     1     1     0     0     0     0     0     0     0     0     0
  12      1     1     1     1     1     1     1     1     1     0     0     0     0     0     0     0     0     0
  13      1     1     1     1     1     1     1     1     1     0     0     0     0     0     0     0     0     0
  14      1     1     1     1     1     1     1     1     1     0     0     0     0     0     0     0     0     0
  15      1     1     1     1     1     1     1     1     1     0     0     0     0     0     0     0     0     0
  16      1     1     1     1     1     1     1     1     1     0     0     0     0     0     0     0     0     0
  17      1     1     1     1     1     1     1     1     1     0     0     0     0     0     0     0     0     0
  18      1     1     1     1     1     1     1     1     1     0     0     0     0     0     0     0     0     0



             ZONE ARRAY: R_Zone_4  
 READING ON UNIT   15 WITH FORMAT: (FREE)              

          1     2     3     4     5     6     7     8     9    10    11    12    13    14    15    16    17    18
 ................................................................................................................
   1      1     1     1     1     1     1     1     1     1     0     0     0     0     0     0     0     0     0
   2      1     1     1     1     1     1     1     1     1     0     0     0     0     0     0     0     0     0
   3      1     1     1     1     1     1     1     1     1     0     0     0     0     0     0     0     0     0
   4      1     1     1     1     1     1     1     1     1     0     0     0     0     0     0     0     0     0
   5      1     1     1     1     1     1     1     1     1     0     0     0     0     0     0     0     0     0
   6      1     1     1     1     1     1     1     1     1     0     0     0     0     0     0     0     0     0
   7      1     1     1     1     1     1     1     1     1     0     0     0     0     0     0     0     0     0
   8      1     1     1     1     1     1     1     1     1     0     0     0     0     0     0     0     0     0
   9      1     1     1     1     1     1     1     1     1     0     0     0     0     0     0     0     0     0
  10      1     1     1     1     1     1     1     1     1     0     0     0     0     0     0     0     0     0
  11      1     1     1     1     1     1     1     1     1     0     0     0     0     0     0     0     0     0
  12      1     1     1     1     1     1     1     1     1     0     0     0     0     0     0     0     0     0
  13      1     1     1     1     1     1     1     1     1     0     0     0     0     0     0     0     0     0
  14      1     1     1     1     1     1     1     1     1     0     0     0     0     0     0     0     0     0
  15      1     1     1     1     1     1     1     1     1     0     0     0     0     0     0     0     0     0
  16      1     1     1     1     1     1     1     1     1     0     0     0     0     0     0     0     0     0
  17      1     1     1     1     1     1     1     1     1     0     0     0     0     0     0     0     0     0
  18      1     1     1     1     1     1     1     1     1     0     0     0     0     0     0     0     0     0



             ZONE ARRAY: R_Zone_5  
 READING ON UNIT   15 WITH FORMAT: (FREE)              

          1     2     3     4     5     6     7     8     9    10    11    12    13    14    15    16    17    18
 ................................................................................................................
   1      1     1     1     1     1     1     1     1     1     0     0     0     0     0     0     0     0     0
   2      1     1     1     1     1     1     1     1     1     0     0     0     0     0     0     0     0     0
   3      1     1     1     1     1     1     1     1     1     0     0     0     0     0     0     0     0     0
   4      1     1     1     1     1     1     1     1     1     0     0     0     0     0     0     0     0     0
   5      1     1     1     1     1     1     1     1     1     0     0     0     0     0     0     0     0     0
   6      1     1     1     1     1     1     1     1     1     0     0     0     0     0     0     0     0     0
   7      1     1     1     1     1     1     1     1     1     0     0     0     0     0     0     0     0     0
   8      1     1     1     1     1     1     1     1     1     0     0     0     0     0     0     0     0     0
   9      1     1     1     1     1     1     1     1     1     0     0     0     0     0     0     0     0     0
  10      1     1     1     1     1     1     1     1     1     0     0     0     0     0     0     0     0     0
  11      1     1     1     1     1     1     1     1     1     0     0     0     0     0     0     0     0     0
  12      1     1     1     1     1     1     1     1     1     0     0     0     0     0     0     0     0     0
  13      1     1     1     1     1     1     1     1     1     0     0     0     0     0     0     0     0     0
  14      1     1     1     1     1     1     1     1     1     0     0     0     0     0     0     0     0     0
  15      1     1     1     1     1     1     1     1     1     0     0     0     0     0     0     0     0     0
  16      1     1     1     1     1     1     1     1     1     0     0     0     0     0     0     0     0     0
  17      1     1     1     1     1     1     1     1     1     0     0     0     0     0     0     0     0     0
  18      1     1     1     1     1     1     1     1     1     0     0     0     0     0     0     0     0     0



             ZONE ARRAY: R_Zone_6  
 READING ON UNIT   15 WITH FORMAT: (FREE)              

          1     2     3     4     5     6     7     8     9    10    11    12    13    14    15    16    17    18
 ................................................................................................................
   1      0     0     0     0     0     0     0     0     0     1     1     1     1     1     1     1     1     1
   2      0     0     0     0     0     0     0     0     0     1     1     1     1     1     1     1     1     1
   3      0     0     0     0     0     0     0     0     0     1     1     1     1     1     1     1     1     1
   4      0     0     0     0     0     0     0     0     0     1     1     1     1     1     1     1     1     1
   5      0     0     0     0     0     0     0     0     0     1     1     1     1     1     1     1     1     1
   6      0     0     0     0     0     0     0     0     0     1     1     1     1     1     1     1     1     1
   7      0     0     0     0     0     0     0     0     0     1     1     1     1     1     1     1     1     1
   8      0     0     0     0     0     0     0     0     0     1     1     1     1     1     1     1     1     1
   9      0     0     0     0     0     0     0     0     0     1     1     1     1     1     1     1     1     1
  10      0     0     0     0     0     0     0     0     0     1     1     1     1     1     1     1     1     1
  11      0     0     0     0     0     0     0     0     0     1     1     1     1     1     1     1     1     1
  12      0     0     0     0     0     0     0     0     0     1     1     1     1     1     1     1     1     1
  13      0     0     0     0     0     0     0     0     0     1     1     1     1     1     1     1     1     1
  14      0     0     0     0     0     0     0     0     0     1     1     1     1     1     1     1     1     1
  15      0     0     0     0     0     0     0     0     0     1     1     1     1     1     1     1     1     1
  16      0     0     0     0     0     0     0     0     0     1     1     1     1     1     1     1     1     1
  17      0     0     0     0     0     0     0     0     0     1     1     1     1     1     1     1     1     1
  18      0     0     0     0     0     0     0     0     0     1     1     1     1     1     1     1     1     1



             ZONE ARRAY: R_Zone_7  
 READING ON UNIT   15 WITH FORMAT: (FREE)              

          1     2     3     4     5     6     7     8     9    10    11    12    13    14    15    16    17    18
 ................................................................................................................
   1      0     0     0     0     0     0     0     0     0     1     1     1     1     1     1     1     1     1
   2      0     0     0     0     0     0     0     0     0     1     1     1     1     1     1     1     1     1
   3      0     0     0     0     0     0     0     0     0     1     1     1     1     1     1     1     1     1
   4      0     0     0     0     0     0     0     0     0     1     1     1     1     1     1     1     1     1
   5      0     0     0     0     0     0     0     0     0     1     1     1     1     1     1     1     1     1
   6      0     0     0     0     0     0     0     0     0     1     1     1     1     1     1     1     1     1
   7      0     0     0     0     0     0     0     0     0     1     1     1     1     1     1     1     1     1
   8      0     0     0     0     0     0     0     0     0     1     1     1     1     1     1     1     1     1
   9      0     0     0     0     0     0     0     0     0     1     1     1     1     1     1     1     1     1
  10      0     0     0     0     0     0     0     0     0     1     1     1     1     1     1     1     1     1
  11      0     0     0     0     0     0     0     0     0     1     1     1     1     1     1     1     1     1
  12      0     0     0     0     0     0     0     0     0     1     1     1     1     1     1     1     1     1
  13      0     0     0     0     0     0     0     0     0     1     1     1     1     1     1     1     1     1
  14      0     0     0     0     0     0     0     0     0     1     1     1     1     1     1     1     1     1
  15      0     0     0     0     0     0     0     0     0     1     1     1     1     1     1     1     1     1
  16      0     0     0     0     0     0     0     0     0     1     1     1     1     1     1     1     1     1
  17      0     0     0     0     0     0     0     0     0     1     1     1     1     1     1     1     1     1
  18      0     0     0     0     0     0     0     0     0     1     1     1     1     1     1     1     1     1



             ZONE ARRAY: R_Zone_8  
 READING ON UNIT   15 WITH FORMAT: (FREE)              

          1     2     3     4     5     6     7     8     9    10    11    12    13    14    15    16    17    18
 ................................................................................................................
   1      0     0     0     0     0     0     0     0     0     1     1     1     1     1     1     1     1     1
   2      0     0     0     0     0     0     0     0     0     1     1     1     1     1     1     1     1     1
   3      0     0     0     0     0     0     0     0     0     1     1     1     1     1     1     1     1     1
   4      0     0     0     0     0     0     0     0     0     1     1     1     1     1     1     1     1     1
   5      0     0     0     0     0     0     0     0     0     1     1     1     1     1     1     1     1     1
   6      0     0     0     0     0     0     0     0     0     1     1     1     1     1     1     1     1     1
   7      0     0     0     0     0     0     0     0     0     1     1     1     1     1     1     1     1     1
   8      0     0     0     0     0     0     0     0     0     1     1     1     1     1     1     1     1     1
   9      0     0     0     0     0     0     0     0     0     1     1     1     1     1     1     1     1     1
  10      0     0     0     0     0     0     0     0     0     1     1     1     1     1     1     1     1     1
  11      0     0     0     0     0     0     0     0     0     1     1     1     1     1     1     1     1     1
  12      0     0     0     0     0     0     0     0     0     1     1     1     1     1     1     1     1     1
  13      0     0     0     0     0     0     0     0     0     1     1     1     1     1     1     1     1     1
  14      0     0     0     0     0     0     0     0     0     1     1     1     1     1     1     1     1     1
  15      0     0     0     0     0     0     0     0     0     1     1     1     1     1     1     1     1     1
  16      0     0     0     0     0     0     0     0     0     1     1     1     1     1     1     1     1     1
  17      0     0     0     0     0     0     0     0     0     1     1     1     1     1     1     1     1     1
  18      0     0     0     0     0     0     0     0     0     1     1     1     1     1     1     1     1     1



             ZONE ARRAY: R_Zone_9  
 READING ON UNIT   15 WITH FORMAT: (FREE)              

          1     2     3     4     5     6     7     8     9    10    11    12    13    14    15    16    17    18
 ................................................................................................................
   1      0     0     0     0     0     0     0     0     0     1     1     1     1     1     1     1     1     1
   2      0     0     0     0     0     0     0     0     0     1     1     1     1     1     1     1     1     1
   3      0     0     0     0     0     0     0     0     0     1     1     1     1     1     1     1     1     1
   4      0     0     0     0     0     0     0     0     0     1     1     1     1     1     1     1     1     1
   5      0     0     0     0     0     0     0     0     0     1     1     1     1     1     1     1     1     1
   6      0     0     0     0     0     0     0     0     0     1     1     1     1     1     1     1     1     1
   7      0     0     0     0     0     0     0     0     0     1     1     1     1     1     1     1     1     1
   8      0     0     0     0     0     0     0     0     0     1     1     1     1     1     1     1     1     1
   9      0     0     0     0     0     0     0     0     0     1     1     1     1     1     1     1     1     1
  10      0     0     0     0     0     0     0     0     0     1     1     1     1     1     1     1     1     1
  11      0     0     0     0     0     0     0     0     0     1     1     1     1     1     1     1     1     1
  12      0     0     0     0     0     0     0     0     0     1     1     1     1     1     1     1     1     1
  13      0     0     0     0     0     0     0     0     0     1     1     1     1     1     1     1     1     1
  14      0     0     0     0     0     0     0     0     0     1     1     1     1     1     1     1     1     1
  15      0     0     0     0     0     0     0     0     0     1     1     1     1     1     1     1     1     1
  16      0     0     0     0     0     0     0     0     0     1     1     1     1     1     1     1     1     1
  17      0     0     0     0     0     0     0     0     0     1     1     1     1     1     1     1     1     1
  18      0     0     0     0     0     0     0     0     0     1     1     1     1     1     1     1     1     1



             ZONE ARRAY: R_Zone_10 
 READING ON UNIT   15 WITH FORMAT: (FREE)              

          1     2     3     4     5     6     7     8     9    10    11    12    13    14    15    16    17    18
 ................................................................................................................
   1      0     0     0     0     0     0     0     0     0     1     1     1     1     1     1     1     1     1
   2      0     0     0     0     0     0     0     0     0     1     1     1     1     1     1     1     1     1
   3      0     0     0     0     0     0     0     0     0     1     1     1     1     1     1     1     1     1
   4      0     0     0     0     0     0     0     0     0     1     1     1     1     1     1     1     1     1
   5      0     0     0     0     0     0     0     0     0     1     1     1     1     1     1     1     1     1
   6      0     0     0     0     0     0     0     0     0     1     1     1     1     1     1     1     1     1
   7      0     0     0     0     0     0     0     0     0     1     1     1     1     1     1     1     1     1
   8      0     0     0     0     0     0     0     0     0     1     1     1     1     1     1     1     1     1
   9      0     0     0     0     0     0     0     0     0     1     1     1     1     1     1     1     1     1
  10      0     0     0     0     0     0     0     0     0     1     1     1     1     1     1     1     1     1
  11      0     0     0     0     0     0     0     0     0     1     1     1     1     1     1     1     1     1
  12      0     0     0     0     0     0     0     0     0     1     1     1     1     1     1     1     1     1
  13      0     0     0     0     0     0     0     0     0     1     1     1     1     1     1     1     1     1
  14      0     0     0     0     0     0     0     0     0     1     1     1     1     1     1     1     1     1
  15      0     0     0     0     0     0     0     0     0     1     1     1     1     1     1     1     1     1
  16      0     0     0     0     0     0     0     0     0     1     1     1     1     1     1     1     1     1
  17      0     0     0     0     0     0     0     0     0     1     1     1     1     1     1     1     1     1
  18      0     0     0     0     0     0     0     0     0     1     1     1     1     1     1     1     1     1

 PARAMETER VALUE INPUT FILE,  INPUT READ FROM UNIT   52
 # MODFLOW-2005 PVAL file for project default_project

 NUMBER OF PARAMETER VALUES TO BE READ FROM PARAMETER VALUE FILE:   11

[...]
            RECHARGE =    51186216.0000              RECHARGE =           4.2221

            TOTAL IN =    60501444.0000              TOTAL IN =           4.5042

          OUT:                                     OUT:
          ----                                     ----
             STORAGE =           0.0000               STORAGE =           0.0000
       CONSTANT HEAD =           0.0000         CONSTANT HEAD =           0.0000
               WELLS =    25420680.0000                 WELLS =           2.0968
       RIVER LEAKAGE =    35080048.0000         RIVER LEAKAGE =           2.4074
     HEAD DEP BOUNDS =           0.0000       HEAD DEP BOUNDS =           0.0000
            RECHARGE =           0.0000              RECHARGE =           0.0000

           TOTAL OUT =    60500728.0000             TOTAL OUT =           4.5042

            IN - OUT =         716.0000              IN - OUT =      -8.6308E-05

 PERCENT DISCREPANCY =           0.00     PERCENT DISCREPANCY =           0.00






          TIME SUMMARY AT END OF TIME STEP   6 IN STRESS PERIOD    5
                    SECONDS     MINUTES      HOURS       DAYS        YEARS
                    -----------------------------------------------------------
   TIME STEP LENGTH 2.81954E+06  46992.      783.21      32.634     8.93459E-02
 STRESS PERIOD TIME 1.12517E+07 1.87528E+05  3125.5      130.23     0.35654    
         TOTAL TIME 1.21233E+07 2.02055E+05  3367.6      140.32     0.38416    
1
 
 SOLVING FOR HEAD 

 OUTPUT CONTROL FOR STRESS PERIOD    5   TIME STEP   7
    SAVE BUDGET
    PRINT BUDGET
 UBDSV1 SAVING "         STORAGE" ON UNIT   9 AT TIME STEP  7, STRESS PERIOD   5
 UBDSV2 SAVING "   CONSTANT HEAD" ON UNIT   9 AT TIME STEP  7, STRESS PERIOD   5
 UBDSV1 SAVING "FLOW RIGHT FACE " ON UNIT   9 AT TIME STEP  7, STRESS PERIOD   5
 UBDSV1 SAVING "FLOW FRONT FACE " ON UNIT   9 AT TIME STEP  7, STRESS PERIOD   5
 UBDSV1 SAVING "FLOW LOWER FACE " ON UNIT   9 AT TIME STEP  7, STRESS PERIOD   5
 UBDSV4 SAVING "           WELLS" ON UNIT   9 AT TIME STEP  7, STRESS PERIOD   5
 UBDSV4 SAVING "   RIVER LEAKAGE" ON UNIT   9 AT TIME STEP  7, STRESS PERIOD   5
 UBDSV4 SAVING " HEAD DEP BOUNDS" ON UNIT   9 AT TIME STEP  7, STRESS PERIOD   5
 UBDSV3 SAVING "        RECHARGE" ON UNIT   9 AT TIME STEP  7, STRESS PERIOD   5
1
  VOLUMETRIC BUDGET FOR ENTIRE MODEL AT END OF TIME STEP  7 IN STRESS PERIOD   5
  ------------------------------------------------------------------------------

     CUMULATIVE VOLUMES      L**3       RATES FOR THIS TIME STEP      L**3/T
     ------------------                 ------------------------

           IN:                                      IN:
           ---                                      ---
             STORAGE =     9895312.0000               STORAGE =           0.1714
       CONSTANT HEAD =           0.0000         CONSTANT HEAD =           0.0000
               WELLS =           0.0000                 WELLS =           0.0000
       RIVER LEAKAGE =           0.0000         RIVER LEAKAGE =           0.0000
     HEAD DEP BOUNDS =       6.2532E-04       HEAD DEP BOUNDS =           0.0000
            RECHARGE =    65471580.0000              RECHARGE =           4.2221

            TOTAL IN =    75366896.0000              TOTAL IN =           4.3936

          OUT:                                     OUT:
          ----                                     ----
             STORAGE =           0.0000               STORAGE =           0.0000
       CONSTANT HEAD =           0.0000         CONSTANT HEAD =           0.0000
               WELLS =    32515240.0000                 WELLS =           2.0968
       RIVER LEAKAGE =    42850364.0000         RIVER LEAKAGE =           2.2966
     HEAD DEP BOUNDS =           0.0000       HEAD DEP BOUNDS =           0.0000
            RECHARGE =           0.0000              RECHARGE =           0.0000

           TOTAL OUT =    75365600.0000             TOTAL OUT =           4.3934

            IN - OUT =        1296.0000              IN - OUT =       1.6975E-04

 PERCENT DISCREPANCY =           0.00     PERCENT DISCREPANCY =           0.00






          TIME SUMMARY AT END OF TIME STEP   7 IN STRESS PERIOD    5
                    SECONDS     MINUTES      HOURS       DAYS        YEARS
                    -----------------------------------------------------------
   TIME STEP LENGTH 3.38345E+06  56391.      939.85      39.160     0.10722    
 STRESS PERIOD TIME 1.46351E+07 2.43919E+05  4065.3      169.39     0.46376    
         TOTAL TIME 1.55068E+07 2.58446E+05  4307.4      179.48     0.49138    
1
 
 SOLVING FOR HEAD 

 OUTPUT CONTROL FOR STRESS PERIOD    5   TIME STEP   8
    SAVE BUDGET
    PRINT BUDGET
 UBDSV1 SAVING "         STORAGE" ON UNIT   9 AT TIME STEP  8, STRESS PERIOD   5
 UBDSV2 SAVING "   CONSTANT HEAD" ON UNIT   9 AT TIME STEP  8, STRESS PERIOD   5
 UBDSV1 SAVING "FLOW RIGHT FACE " ON UNIT   9 AT TIME STEP  8, STRESS PERIOD   5
 UBDSV1 SAVING "FLOW FRONT FACE " ON UNIT   9 AT TIME STEP  8, STRESS PERIOD   5
 UBDSV1 SAVING "FLOW LOWER FACE " ON UNIT   9 AT TIME STEP  8, STRESS PERIOD   5
 UBDSV4 SAVING "           WELLS" ON UNIT   9 AT TIME STEP  8, STRESS PERIOD   5
 UBDSV4 SAVING "   RIVER LEAKAGE" ON UNIT   9 AT TIME STEP  8, STRESS PERIOD   5
 UBDSV4 SAVING " HEAD DEP BOUNDS" ON UNIT   9 AT TIME STEP  8, STRESS PERIOD   5
 UBDSV3 SAVING "        RECHARGE" ON UNIT   9 AT TIME STEP  8, STRESS PERIOD   5
1
  VOLUMETRIC BUDGET FOR ENTIRE MODEL AT END OF TIME STEP  8 IN STRESS PERIOD   5
  ------------------------------------------------------------------------------

     CUMULATIVE VOLUMES      L**3       RATES FOR THIS TIME STEP      L**3/T
     ------------------                 ------------------------

           IN:                                      IN:
           ---                                      ---
             STORAGE =    10287718.0000               STORAGE =       9.6648E-02
       CONSTANT HEAD =           0.0000         CONSTANT HEAD =           0.0000
               WELLS =           0.0000                 WELLS =           0.0000
       RIVER LEAKAGE =           0.0000         RIVER LEAKAGE =           0.0000
     HEAD DEP BOUNDS =       6.2532E-04       HEAD DEP BOUNDS =           0.0000
            RECHARGE =    82614016.0000              RECHARGE =           4.2221

            TOTAL IN =    92901736.0000              TOTAL IN =           4.3188

          OUT:                                     OUT:
          ----                                     ----
             STORAGE =           0.0000               STORAGE =           0.0000
       CONSTANT HEAD =           0.0000         CONSTANT HEAD =           0.0000
               WELLS =    41028712.0000                 WELLS =           2.0968
       RIVER LEAKAGE =    51870844.0000         RIVER LEAKAGE =           2.2217
     HEAD DEP BOUNDS =           0.0000       HEAD DEP BOUNDS =           0.0000
            RECHARGE =           0.0000              RECHARGE =           0.0000

           TOTAL OUT =    92899552.0000             TOTAL OUT =           4.3186

            IN - OUT =        2184.0000              IN - OUT =       2.1935E-04

 PERCENT DISCREPANCY =           0.00     PERCENT DISCREPANCY =           0.01






          TIME SUMMARY AT END OF TIME STEP   8 IN STRESS PERIOD    5
                    SECONDS     MINUTES      HOURS       DAYS        YEARS
                    -----------------------------------------------------------
   TIME STEP LENGTH 4.06014E+06  67669.      1127.8      46.992     0.12866    
 STRESS PERIOD TIME 1.86953E+07 3.11588E+05  5193.1      216.38     0.59242    
         TOTAL TIME 1.95669E+07 3.26115E+05  5435.3      226.47     0.62004    
1
 
 SOLVING FOR HEAD 

 OUTPUT CONTROL FOR STRESS PERIOD    5   TIME STEP   9
    PRINT HEAD FOR ALL LAYERS
    SAVE HEAD FOR ALL LAYERS
    SAVE BUDGET
    PRINT BUDGET
 UBDSV1 SAVING "         STORAGE" ON UNIT   9 AT TIME STEP  9, STRESS PERIOD   5
 UBDSV2 SAVING "   CONSTANT HEAD" ON UNIT   9 AT TIME STEP  9, STRESS PERIOD   5
 UBDSV1 SAVING "FLOW RIGHT FACE " ON UNIT   9 AT TIME STEP  9, STRESS PERIOD   5
 UBDSV1 SAVING "FLOW FRONT FACE " ON UNIT   9 AT TIME STEP  9, STRESS PERIOD   5
 UBDSV1 SAVING "FLOW LOWER FACE " ON UNIT   9 AT TIME STEP  9, STRESS PERIOD   5
 UBDSV4 SAVING "           WELLS" ON UNIT   9 AT TIME STEP  9, STRESS PERIOD   5
 UBDSV4 SAVING "   RIVER LEAKAGE" ON UNIT   9 AT TIME STEP  9, STRESS PERIOD   5
 UBDSV4 SAVING " HEAD DEP BOUNDS" ON UNIT   9 AT TIME STEP  9, STRESS PERIOD   5
 UBDSV3 SAVING "        RECHARGE" ON UNIT   9 AT TIME STEP  9, STRESS PERIOD   5
1
              HEAD IN LAYER   1 AT END OF TIME STEP   9 IN STRESS PERIOD    5
  ---------------------------------------------------------------------------

          1      2      3      4      5      6      7      8      9     10
 .........................................................................
   1  100.09 105.10 109.49 113.29 116.64 119.61 122.29 124.77 127.11 129.39
   2  100.09 105.06 109.42 113.17 116.48 119.40 122.03 124.46 126.77 129.04
   3  100.09 104.99 109.27 112.95 116.17 118.98 121.51 123.84 126.08 128.32
   4  100.09 104.90 109.08 112.64 115.72 118.37 120.72 122.87 124.97 127.18
   5  100.09 104.78 108.84 112.26 115.17 117.60 119.67 121.53 123.37 125.47
   6  100.09 104.67 108.60 111.87 114.56 116.71 118.40 119.78 121.13 122.98
   7  100.09 104.57 108.39 111.51 113.99 115.82 117.02 117.65 118.04 119.13
   8  100.08 104.50 108.25 111.26 113.58 115.12 115.80 115.43 113.97 112.47
   9  100.08 104.49 108.22 111.20 113.45 114.86 115.25 114.08 109.97  98.47
  10  100.08 104.53 108.31 111.34 113.68 115.23 115.93 115.58 114.13 112.63
  11  100.09 104.62 108.50 111.66 114.19 116.05 117.28 117.95 118.35 119.46
  12  100.09 104.75 108.77 112.10 114.86 117.06 118.80 120.22 121.61 123.48
  13  100.09 104.90 109.06 112.58 115.57 118.08 120.22 122.13 124.02 126.15
  14  100.09 105.04 109.36 113.05 116.24 118.99 121.43 123.65 125.80 128.04
  15  100.10 105.17 109.62 113.45 116.81 119.75 122.38 124.80 127.11 129.39
  16  100.10 105.28 109.83 113.77 117.25 120.32 123.09 125.63 128.02 130.33
  17  100.10 105.35 109.98 113.99 117.55 120.71 123.56 126.16 128.60 130.93
  18  100.10 105.39 110.05 114.11 117.70 120.90 123.79 126.43 128.89 131.22
1
              HEAD IN LAYER   1 AT END OF TIME STEP   9 IN STRESS PERIOD    5
  ---------------------------------------------------------------------------

         11     12     13     14     15     16     17     18
 ...........................................................
   1  131.44 133.30 134.95 136.36 137.52 138.39 138.97 139.26
   2  131.11 133.01 134.71 136.17 137.36 138.27 138.87 139.17
   3  130.44 132.42 134.22 135.78 137.06 138.03 138.68 139.00
   4  129.36 131.50 133.49 135.22 136.64 137.71 138.42 138.77
   5  127.81 130.23 132.52 134.51 136.12 137.33 138.12 138.51
   6  125.63 128.58 131.35 133.70 135.57 136.93 137.82 138.26
   7  122.63 126.58 130.08 132.91 135.06 136.60 137.58 138.06
   8  118.66 124.48 128.97 132.29 134.71 136.38 137.44 137.95
   9  114.74 123.20 128.49 132.09 134.63 136.36 137.45 137.97
  10  118.83 124.65 129.14 132.47 134.88 136.56 137.61 138.12
  11  122.97 126.92 130.43 133.25 135.40 136.94 137.92 138.40
  12  126.15 129.10 131.87 134.22 136.08 137.45 138.33 138.76
  13  128.50 130.93 133.22 135.20 136.81 138.01 138.79 139.18
  14  130.25 132.39 134.37 136.10 137.50 138.56 139.26 139.60
  15  131.53 133.51 135.30 136.84 138.10 139.05 139.68 139.99
  16  132.43 134.32 135.99 137.41 138.57 139.44 140.02 140.31
  17  133.00 134.84 136.44 137.80 138.90 139.72 140.27 140.54
  18  133.28 135.10 136.67 137.99 139.06 139.86 140.39 140.65
1
              HEAD IN LAYER   2 AT END OF TIME STEP   9 IN STRESS PERIOD    5
  ---------------------------------------------------------------------------

          1      2      3      4      5      6      7      8      9     10
 .........................................................................
   1  100.61 105.24 109.64 113.33 116.67 119.58 122.25 124.69 127.00 129.20
   2  100.61 105.20 109.57 113.22 116.51 119.37 121.98 124.38 126.66 128.85
   3  100.60 105.13 109.42 112.99 116.19 118.95 121.46 123.76 125.97 128.14
   4  100.59 105.02 109.22 112.67 115.73 118.34 120.66 122.78 124.86 126.99
   5  100.58 104.91 108.98 112.29 115.17 117.55 119.60 121.43 123.24 125.29
   6  100.56 104.79 108.73 111.89 114.56 116.64 118.31 119.65 120.97 122.77
   7  100.55 104.68 108.51 111.52 113.98 115.74 116.90 117.48 117.79 118.81
   8  100.54 104.62 108.37 111.27 113.55 115.02 115.64 115.16 113.44 111.36
   9  100.54 104.60 108.33 111.20 113.42 114.76 115.07 113.66 108.69  92.32
  10  100.55 104.64 108.42 111.35 113.65 115.14 115.78 115.31 113.60 111.52
  11  100.56 104.74 108.62 111.68 114.17 115.97 117.17 117.78 118.11 119.13
  12  100.57 104.87 108.90 112.12 114.86 117.00 118.72 120.10 121.45 123.27
  13  100.59 105.03 109.20 112.61 115.58 118.03 120.15 122.03 123.89 125.97
  14  100.61 105.18 109.51 113.08 116.26 118.96 121.37 123.56 125.69 127.86
  15  100.62 105.31 109.78 113.50 116.84 119.72 122.34 124.72 126.99 129.21
  16  100.64 105.42 109.99 113.82 117.29 120.30 123.05 125.55 127.91 130.15
  17  100.64 105.50 110.14 114.05 117.59 120.69 123.52 126.09 128.50 130.74
  18  100.65 105.53 110.22 114.16 117.74 120.88 123.75 126.35 128.78 131.03
1
              HEAD IN LAYER   2 AT END OF TIME STEP   9 IN STRESS PERIOD    5
  ---------------------------------------------------------------------------

         11     12     13     14     15     16     17     18
 ...........................................................
   1  131.22 133.05 134.68 136.07 137.20 138.05 138.62 138.89
   2  130.89 132.76 134.44 135.87 137.05 137.93 138.52 138.80
   3  130.22 132.17 133.95 135.49 136.75 137.70 138.33 138.63
   4  129.15 131.26 133.23 134.93 136.33 137.38 138.07 138.40
   5  127.60 130.00 132.26 134.23 135.82 137.00 137.77 138.14
   6  125.42 128.36 131.11 133.43 135.27 136.61 137.48 137.89
   7  122.38 126.36 129.86 132.64 134.77 136.27 137.24 137.69
   8  118.26 124.25 128.76 132.04 134.42 136.07 137.10 137.59
   9  113.81 122.90 128.28 131.84 134.35 136.04 137.10 137.60
  10  118.43 124.42 128.93 132.21 134.60 136.24 137.27 137.76
  11  122.72 126.70 130.20 132.99 135.11 136.62 137.58 138.03
  12  125.93 128.88 131.63 133.95 135.79 137.12 137.98 138.40
  13  128.29 130.70 132.97 134.92 136.51 137.68 138.44 138.82
  14  130.03 132.16 134.11 135.81 137.19 138.23 138.91 139.24
  15  131.31 133.27 135.03 136.55 137.79 138.71 139.33 139.62
  16  132.20 134.07 135.72 137.12 138.26 139.11 139.67 139.94
  17  132.78 134.59 136.17 137.50 138.58 139.38 139.91 140.17
  18  133.06 134.85 136.39 137.70 138.74 139.52 140.03 140.29

 HEAD WILL BE SAVED ON UNIT   37 AT END OF TIME STEP   9, STRESS PERIOD    5
1
  VOLUMETRIC BUDGET FOR ENTIRE MODEL AT END OF TIME STEP  9 IN STRESS PERIOD   5
  ------------------------------------------------------------------------------

     CUMULATIVE VOLUMES      L**3       RATES FOR THIS TIME STEP      L**3/T
     ------------------                 ------------------------

           IN:                                      IN:
           ---                                      ---
             STORAGE =    10531862.0000               STORAGE =       5.0110E-02
       CONSTANT HEAD =           0.0000         CONSTANT HEAD =           0.0000
               WELLS =           0.0000                 WELLS =           0.0000
       RIVER LEAKAGE =           0.0000         RIVER LEAKAGE =           0.0000
     HEAD DEP BOUNDS =       6.2532E-04       HEAD DEP BOUNDS =           0.0000
            RECHARGE =   103184944.0000              RECHARGE =           4.2221

            TOTAL IN =   113716808.0000              TOTAL IN =           4.2722

          OUT:                                     OUT:
          ----                                     ----
             STORAGE =           0.0000               STORAGE =           0.0000
       CONSTANT HEAD =           0.0000         CONSTANT HEAD =           0.0000
               WELLS =    51244880.0000                 WELLS =           2.0968
       RIVER LEAKAGE =    62470024.0000         RIVER LEAKAGE =           2.1755
     HEAD DEP BOUNDS =           0.0000       HEAD DEP BOUNDS =           0.0000
            RECHARGE =           0.0000              RECHARGE =           0.0000

           TOTAL OUT =   113714904.0000             TOTAL OUT =           4.2723

            IN - OUT =        1904.0000              IN - OUT =      -5.6267E-05

 PERCENT DISCREPANCY =           0.00     PERCENT DISCREPANCY =           0.00






          TIME SUMMARY AT END OF TIME STEP   9 IN STRESS PERIOD    5
                    SECONDS     MINUTES      HOURS       DAYS        YEARS
                    -----------------------------------------------------------
   TIME STEP LENGTH 4.87217E+06  81203.      1353.4      56.391     0.15439    
 STRESS PERIOD TIME 2.35674E+07 3.92791E+05  6546.5      272.77     0.74681    
         TOTAL TIME 2.44391E+07 4.07318E+05  6788.6      282.86     0.77443    
1

 HEAD AND DRAWDOWN OBSERVATIONS
 OBSERVATION       OBSERVED           SIMULATED
   NAME              VALUE              VALUE             DIFFERENCE
 --------------------------------------------------------------------
 B.0             101.80400085        100.17682648        1.6271743774    
 B.1           -2.89993286133E-02  -8.39233398438E-05  -2.89154052734E-02
 B.12          -0.12899780273      -8.40606689453E-02  -4.49371337891E-02
 C.0             128.11700439        126.83242035        1.2845840454    
 C.1           -4.10003662109E-02  -3.36914062500E-02  -7.30895996094E-03
 C.2           -0.55700683594      -0.54346466064      -1.35421752930E-02
 C.8            -11.531005859       -11.552040100       2.10342407227E-02
 C.12           -14.184005737       -14.191787720       7.78198242188E-03
 D.0             156.67799377        156.71820068      -4.02069091797E-02
 D.1            -4.3809967041       -4.3184051514      -6.25915527344E-02
 D.12           -42.539993286       -42.591285706       5.12924194336E-02
 E.0             124.89299774        126.83242035       -1.9394226074    
 E.1           -6.70013427734E-02  -5.13992309570E-02  -1.56021118164E-02
 E.12           -14.304000854       -14.250259399      -5.37414550781E-02
 F.0             140.96099854        140.65081787       0.31018066406    
 F.1           -5.99975585938E-02  -9.86785888672E-02   3.86810302734E-02
 F.12           -21.675994873       -21.657150269      -1.88446044922E-02
 G.0             126.53700256        127.04066467      -0.50366210938    
 G.1            4.99725341797E-03  -3.83834838867E-02   4.33807373047E-02
 G.12           -14.365005493       -14.366287231       1.28173828125E-03
 H.0             101.11199951        101.19657135      -8.45718383789E-02
 H.1            4.80041503906E-02  -2.73895263672E-03   5.07431030273E-02
 H.12          -0.56800079346      -0.64984130859       8.18405151367E-02
 I.0             158.13499451        156.69999695        1.4349975586    
 I.1            -5.5329895020       -5.5347900391       1.80053710938E-03
 I.12           -43.216995239       -43.103256226      -0.11373901367    
 J.0             176.37399292        176.11834717       0.25564575195    
 J.1           -9.91821289062E-04  -0.10157775879       0.10058593750    
 J.12           -38.241989136       -38.362564087       0.12057495117    
 A.0             142.02000427        140.75593567        1.2640686035    
 A.1           -1.30004882812E-02  -1.67236328125E-02   3.72314453125E-03
 A.12           -19.921005249       -19.875991821      -4.50134277344E-02

 SUM OF SQUARED DIFFERENCE:    1.22062E+01

 Run end date and time (yyyy/mm/dd hh:mm:ss): 2010/05/05 16:14:21
 Elapsed run time:  0.047 Seconds

