                                  MODFLOW-2005     
      U.S. GEOLOGICAL SURVEY MODULAR FINITE-DIFFERENCE GROUND-WATER FLOW MODEL
                            VERSION 1.8.00 12/18/2009

 LIST FILE: tc1pred.lst
                         UNIT   11

 OPENING tc1pred.cbc
 FILE TYPE:DATA(BINARY)   UNIT    9   STATUS:REPLACE
 FORMAT:BINARY                 ACCESS:SEQUENTIAL          

 OPENING tc1pred.bhd
 FILE TYPE:DATA(BINARY)   UNIT   37   STATUS:REPLACE
 FORMAT:BINARY                 ACCESS:SEQUENTIAL          

 OPENING tc1pred._os
 FILE TYPE:DATA   UNIT   23   STATUS:REPLACE
 FORMAT:FORMATTED              ACCESS:SEQUENTIAL          
#                                                                                                                                                                                                                                                                                                           
# Input files                                                                                                                                                                                                                                                                                               
#                                                                                                                                                                                                                                                                                                           

 OPENING tc1.bhd
 FILE TYPE:DATA(BINARY)   UNIT   47   STATUS:OLD    
 FORMAT:BINARY                 ACCESS:SEQUENTIAL          
#                                                                                                                                                                                                                                                                                                           

 OPENING tc1pred.dis
 FILE TYPE:DIS   UNIT   12   STATUS:OLD    
 FORMAT:FORMATTED              ACCESS:SEQUENTIAL          

 OPENING tc1pred.bas
 FILE TYPE:BAS6   UNIT   13   STATUS:OLD    
 FORMAT:FORMATTED              ACCESS:SEQUENTIAL          

 OPENING tc1.oc
 FILE TYPE:OC   UNIT   39   STATUS:OLD    
 FORMAT:FORMATTED              ACCESS:SEQUENTIAL          

 OPENING tc1.pcg
 FILE TYPE:PCG   UNIT   18   STATUS:OLD    
 FORMAT:FORMATTED              ACCESS:SEQUENTIAL          

 OPENING tc1.lpf
 FILE TYPE:LPF   UNIT   14   STATUS:OLD    
 FORMAT:FORMATTED              ACCESS:SEQUENTIAL          

 OPENING tc1.ghb
 FILE TYPE:GHB   UNIT   19   STATUS:OLD    
 FORMAT:FORMATTED              ACCESS:SEQUENTIAL          

 OPENING tc1pred.wel
 FILE TYPE:WEL   UNIT   20   STATUS:OLD    
 FORMAT:FORMATTED              ACCESS:SEQUENTIAL          

 OPENING tc1.riv
 FILE TYPE:RIV   UNIT   21   STATUS:OLD    
 FORMAT:FORMATTED              ACCESS:SEQUENTIAL          

 OPENING tc1.rch
 FILE TYPE:RCH   UNIT   24   STATUS:OLD    
 FORMAT:FORMATTED              ACCESS:SEQUENTIAL          

 OPENING tc1.zon
 FILE TYPE:ZONE   UNIT   15   STATUS:OLD    
 FORMAT:FORMATTED              ACCESS:SEQUENTIAL          

 OPENING tc1.mlt
 FILE TYPE:MULT   UNIT   16   STATUS:OLD    
 FORMAT:FORMATTED              ACCESS:SEQUENTIAL          

 OPENING tc1pred.pval
 FILE TYPE:PVAL   UNIT   52   STATUS:OLD    
 FORMAT:FORMATTED              ACCESS:SEQUENTIAL          

 OPENING tc1pred.obh
 FILE TYPE:HOB   UNIT   22   STATUS:OLD    
 FORMAT:FORMATTED              ACCESS:SEQUENTIAL          

 BAS -- BASIC PACKAGE, VERSION 7, 5/2/2005 INPUT READ FROM UNIT   13

 DISCRETIZATION INPUT DATA READ FROM UNIT   12
 # Discretization File created on 1/28/2009 by ModelMuse version 1.0.9.0.
 # MODULAR MODEL - TWO-LAYER EXAMPLE PROBLEM, TEST CASE TC1
    2 LAYERS        18 ROWS        18 COLUMNS
    5 STRESS PERIOD(S) IN SIMULATION
 MODEL TIME UNIT IS SECONDS
 MODEL LENGTH UNIT IS METERS
  Confining bed flag for each layer:
   1   0

                     DELR =   1000.00    

                     DELC =   1000.00    

 TOP ELEVATION OF LAYER 1 =   150.000    

   MODEL LAYER BOTTOM EL. =   100.000     FOR LAYER   1

 BOT. EL. OF QUASI-3D BED =   90.0000     FOR LAYER   1

   MODEL LAYER BOTTOM EL. =   40.0000     FOR LAYER   2


 STRESS PERIOD     LENGTH       TIME STEPS     MULTIPLIER FOR DELT    SS FLAG
 ----------------------------------------------------------------------------
        1         1.000000          1                    1.000         TR
        2         87162.00          1                    1.000         TR
        3         261486.0          1                    1.000         TR
        4         522972.0          1                    1.000         TR
        5        2.3567450E+07      9                    1.200         TR

 TRANSIENT SIMULATION



 
 # MODULAR MODEL - TWO-LAYER EXAMPLE PROBLEM, TEST CASE TC1                      
 # Basic Package file created on 1/28/2009 by ModelMuse version 1.0.9.0.         
 THE FREE FORMAT OPTION HAS BEEN SELECTED

           BOUNDARY ARRAY =              1 FOR LAYER   1

           BOUNDARY ARRAY =              1 FOR LAYER   2

 AQUIFER HEAD WILL BE SET TO   0.0000     AT ALL NO-FLOW NODES (IBOUND=0).



                       INITIAL HEAD FOR LAYER   1
 READING BINARY ON UNIT   47

         1     2     3     4     5     6     7     8     9    10    11    12    13    14    15    16    17    18
 ...............................................................................................................
   1  100.1 105.1 109.5 113.3 116.6 119.6 122.3 124.8 127.1 129.4 131.4 133.3 134.9 136.4 137.5 138.4 139.0 139.3
   2  100.1 105.1 109.4 113.2 116.5 119.4 122.0 124.5 126.8 129.0 131.1 133.0 134.7 136.2 137.4 138.3 138.9 139.2
   3  100.1 105.0 109.3 113.0 116.2 119.0 121.5 123.8 126.1 128.3 130.4 132.4 134.2 135.8 137.1 138.0 138.7 139.0
   4  100.1 104.9 109.1 112.6 115.7 118.4 120.7 122.9 125.0 127.2 129.4 131.5 133.5 135.2 136.6 137.7 138.4 138.8
   5  100.1 104.8 108.8 112.3 115.2 117.6 119.7 121.5 123.4 125.5 127.8 130.2 132.5 134.5 136.1 137.3 138.1 138.5
   6  100.1 104.7 108.6 111.9 114.6 116.7 118.4 119.8 121.1 123.0 125.6 128.6 131.3 133.7 135.6 136.9 137.8 138.3
   7  100.1 104.6 108.4 111.5 114.0 115.8 117.0 117.7 118.0 119.1 122.6 126.6 130.1 132.9 135.1 136.6 137.6 138.1
   8  100.1 104.5 108.3 111.3 113.6 115.1 115.8 115.4 114.0 112.5 118.7 124.5 129.0 132.3 134.7 136.4 137.4 138.0
   9  100.1 104.5 108.2 111.2 113.5 114.9 115.3 114.1 110.0  98.5 114.7 123.2 128.5 132.1 134.6 136.4 137.4 138.0
  10  100.1 104.5 108.3 111.3 113.7 115.2 115.9 115.6 114.1 112.6 118.8 124.7 129.1 132.5 134.9 136.6 137.6 138.1
  11  100.1 104.6 108.5 111.7 114.2 116.1 117.3 117.9 118.4 119.5 123.0 126.9 130.4 133.3 135.4 136.9 137.9 138.4
  12  100.1 104.8 108.8 112.1 114.9 117.1 118.8 120.2 121.6 123.5 126.1 129.1 131.9 134.2 136.1 137.4 138.3 138.8
  13  100.1 104.9 109.1 112.6 115.6 118.1 120.2 122.1 124.0 126.2 128.5 130.9 133.2 135.2 136.8 138.0 138.8 139.2
  14  100.1 105.0 109.4 113.0 116.2 119.0 121.4 123.6 125.8 128.0 130.2 132.4 134.4 136.1 137.5 138.6 139.3 139.6
  15  100.1 105.2 109.6 113.5 116.8 119.7 122.4 124.8 127.1 129.4 131.5 133.5 135.3 136.8 138.1 139.0 139.7 140.0
  16  100.1 105.3 109.8 113.8 117.3 120.3 123.1 125.6 128.0 130.3 132.4 134.3 136.0 137.4 138.6 139.4 140.0 140.3
  17  100.1 105.3 110.0 114.0 117.6 120.7 123.6 126.2 128.6 130.9 133.0 134.8 136.4 137.8 138.9 139.7 140.3 140.5
  18  100.1 105.4 110.0 114.1 117.7 120.9 123.8 126.4 128.9 131.2 133.3 135.1 136.7 138.0 139.1 139.9 140.4 140.7



                       INITIAL HEAD FOR LAYER   2
 READING BINARY ON UNIT   47

         1     2     3     4     5     6     7     8     9    10    11    12    13    14    15    16    17    18
 ...............................................................................................................
   1  100.6 105.2 109.6 113.3 116.7 119.6 122.2 124.7 127.0 129.2 131.2 133.1 134.7 136.1 137.2 138.1 138.6 138.9
   2  100.6 105.2 109.6 113.2 116.5 119.4 122.0 124.4 126.7 128.9 130.9 132.8 134.4 135.9 137.0 137.9 138.5 138.8
   3  100.6 105.1 109.4 113.0 116.2 119.0 121.5 123.8 126.0 128.1 130.2 132.2 134.0 135.5 136.8 137.7 138.3 138.6
   4  100.6 105.0 109.2 112.7 115.7 118.3 120.7 122.8 124.9 127.0 129.1 131.3 133.2 134.9 136.3 137.4 138.1 138.4
   5  100.6 104.9 109.0 112.3 115.2 117.5 119.6 121.4 123.2 125.3 127.6 130.0 132.3 134.2 135.8 137.0 137.8 138.1
   6  100.6 104.8 108.7 111.9 114.6 116.6 118.3 119.7 121.0 122.8 125.4 128.4 131.1 133.4 135.3 136.6 137.5 137.9
   7  100.6 104.7 108.5 111.5 114.0 115.7 116.9 117.5 117.8 118.8 122.4 126.4 129.9 132.6 134.8 136.3 137.2 137.7
   8  100.5 104.6 108.4 111.3 113.6 115.0 115.6 115.2 113.4 111.4 118.3 124.2 128.8 132.0 134.4 136.1 137.1 137.6
   9  100.5 104.6 108.3 111.2 113.4 114.8 115.1 113.7 108.7  92.3 113.8 122.9 128.3 131.8 134.3 136.0 137.1 137.6
  10  100.5 104.6 108.4 111.3 113.7 115.1 115.8 115.3 113.6 111.5 118.4 124.4 128.9 132.2 134.6 136.2 137.3 137.8
  11  100.6 104.7 108.6 111.7 114.2 116.0 117.2 117.8 118.1 119.1 122.7 126.7 130.2 133.0 135.1 136.6 137.6 138.0
  12  100.6 104.9 108.9 112.1 114.9 117.0 118.7 120.1 121.5 123.3 125.9 128.9 131.6 134.0 135.8 137.1 138.0 138.4
  13  100.6 105.0 109.2 112.6 115.6 118.0 120.2 122.0 123.9 126.0 128.3 130.7 133.0 134.9 136.5 137.7 138.4 138.8
  14  100.6 105.2 109.5 113.1 116.3 119.0 121.4 123.6 125.7 127.9 130.0 132.2 134.1 135.8 137.2 138.2 138.9 139.2
  15  100.6 105.3 109.8 113.5 116.8 119.7 122.3 124.7 127.0 129.2 131.3 133.3 135.0 136.6 137.8 138.7 139.3 139.6
  16  100.6 105.4 110.0 113.8 117.3 120.3 123.0 125.6 127.9 130.1 132.2 134.1 135.7 137.1 138.3 139.1 139.7 139.9
  17  100.6 105.5 110.1 114.0 117.6 120.7 123.5 126.1 128.5 130.7 132.8 134.6 136.2 137.5 138.6 139.4 139.9 140.2
  18  100.6 105.5 110.2 114.2 117.7 120.9 123.7 126.4 128.8 131.0 133.1 134.8 136.4 137.7 138.7 139.5 140.0 140.3
 # Output Control file created on 1/28/2009 by ModelMuse version 1.0.9.0.

 OUTPUT CONTROL IS SPECIFIED ONLY AT TIME STEPS FOR WHICH OUTPUT IS DESIRED
 COMPACT CELL-BY-CELL BUDGET FILES WILL BE WRITTEN
 AUXILIARY DATA WILL BE SAVED IN CELL-BY-CELL BUDGET FILES
 HEAD PRINT FORMAT CODE IS -15    DRAWDOWN PRINT FORMAT CODE IS   0
 HEADS WILL BE SAVED ON UNIT   37    DRAWDOWNS WILL BE SAVED ON UNIT    0

 ZONE OPTION, INPUT READ FROM UNIT   15
 # Zone (ZONE) File created on 1/28/2009 by ModelMuse version 1.0.9.0.
    16 ZONE ARRAYS

 MULTIPLIER OPTION, INPUT READ FROM UNIT   16
 # Multiplier (MULT) File created on 1/28/2009 by ModelMuse version 1.0.9.0.
  16 MULTIPLIER ARRAYS

  MULT. ARRAY: SS_1_M1    =  2.000000E-02

  MULT. ARRAY: HK_1_M1    =   1.00000    

  MULT. ARRAY: VERT_AN_M1 =   1.00000    

  MULT. ARRAY: SS_2_M2    =  2.000000E-02



            MULT. ARRAY: HK_2_M2   
 READING ON UNIT   16 WITH FORMAT: (FREE)              

            1           2           3           4           5           6           7           8           9          10
           11          12          13          14          15          16          17          18
 ........................................................................................................................
   1    1.000       1.000       2.000       2.000       3.000       3.000       4.000       4.000       5.000       5.000    
        6.000       6.000       7.000       7.000       8.000       8.000       9.000       9.000    
   2    1.000       1.000       2.000       2.000       3.000       3.000       4.000       4.000       5.000       5.000    
        6.000       6.000       7.000       7.000       8.000       8.000       9.000       9.000    
   3    1.000       1.000       2.000       2.000       3.000       3.000       4.000       4.000       5.000       5.000    
        6.000       6.000       7.000       7.000       8.000       8.000       9.000       9.000    
   4    1.000       1.000       2.000       2.000       3.000       3.000       4.000       4.000       5.000       5.000    
        6.000       6.000       7.000       7.000       8.000       8.000       9.000       9.000    
   5    1.000       1.000       2.000       2.000       3.000       3.000       4.000       4.000       5.000       5.000    
        6.000       6.000       7.000       7.000       8.000       8.000       9.000       9.000    
   6    1.000       1.000       2.000       2.000       3.000       3.000       4.000       4.000       5.000       5.000    
        6.000       6.000       7.000       7.000       8.000       8.000       9.000       9.000    
   7    1.000       1.000       2.000       2.000       3.000       3.000       4.000       4.000       5.000       5.000    
        6.000       6.000       7.000       7.000       8.000       8.000       9.000       9.000    
   8    1.000       1.000       2.000       2.000       3.000       3.000       4.000       4.000       5.000       5.000    
        6.000       6.000       7.000       7.000       8.000       8.000       9.000       9.000    
   9    1.000       1.000       2.000       2.000       3.000       3.000       4.000       4.000       5.000       5.000    
        6.000       6.000       7.000       7.000       8.000       8.000       9.000       9.000    
  10    1.000       1.000       2.000       2.000       3.000       3.000       4.000       4.000       5.000       5.000    
        6.000       6.000       7.000       7.000       8.000       8.000       9.000       9.000    
  11    1.000       1.000       2.000       2.000       3.000       3.000       4.000       4.000       5.000       5.000    
        6.000       6.000       7.000       7.000       8.000       8.000       9.000       9.000    
  12    1.000       1.000       2.000       2.000       3.000       3.000       4.000       4.000       5.000       5.000    
        6.000       6.000       7.000       7.000       8.000       8.000       9.000       9.000    
  13    1.000       1.000       2.000       2.000       3.000       3.000       4.000       4.000       5.000       5.000    
        6.000       6.000       7.000       7.000       8.000       8.000       9.000       9.000    
  14    1.000       1.000       2.000       2.000       3.000       3.000       4.000       4.000       5.000       5.000    
        6.000       6.000       7.000       7.000       8.000       8.000       9.000       9.000    
  15    1.000       1.000       2.000       2.000       3.000       3.000       4.000       4.000       5.000       5.000    
        6.000       6.000       7.000       7.000       8.000       8.000       9.000       9.000    
  16    1.000       1.000       2.000       2.000       3.000       3.000       4.000       4.000       5.000       5.000    
        6.000       6.000       7.000       7.000       8.000       8.000       9.000       9.000    
  17    1.000       1.000       2.000       2.000       3.000       3.000       4.000       4.000       5.000       5.000    
        6.000       6.000       7.000       7.000       8.000       8.000       9.000       9.000    
  18    1.000       1.000       2.000       2.000       3.000       3.000       4.000       4.000       5.000       5.000    
        6.000       6.000       7.000       7.000       8.000       8.000       9.000       9.000    

  MULT. ARRAY: MULT_24    =   1.00000    



            MULT. ARRAY: R_Mult_1  
 READING ON UNIT   16 WITH FORMAT: (FREE)              

            1           2           3           4           5           6           7           8           9          10
           11          12          13          14          15          16          17          18
 ........................................................................................................................
   1   3.1710E-10  3.1710E-10  3.1710E-10  3.1710E-10  3.1710E-10  3.1710E-10  3.1710E-10  3.1710E-10  3.1710E-10   0.000    
        0.000       0.000       0.000       0.000       0.000       0.000       0.000       0.000    
   2   3.1710E-10  3.1710E-10  3.1710E-10  3.1710E-10  3.1710E-10  3.1710E-10  3.1710E-10  3.1710E-10  3.1710E-10   0.000    
        0.000       0.000       0.000       0.000       0.000       0.000       0.000       0.000    
   3   3.1710E-10  3.1710E-10  3.1710E-10  3.1710E-10  3.1710E-10  3.1710E-10  3.1710E-10  3.1710E-10  3.1710E-10   0.000    
        0.000       0.000       0.000       0.000       0.000       0.000       0.000       0.000    
   4   3.1710E-10  3.1710E-10  3.1710E-10  3.1710E-10  3.1710E-10  3.1710E-10  3.1710E-10  3.1710E-10  3.1710E-10   0.000    
        0.000       0.000       0.000       0.000       0.000       0.000       0.000       0.000    
   5   3.1710E-10  3.1710E-10  3.1710E-10  3.1710E-10  3.1710E-10  3.1710E-10  3.1710E-10  3.1710E-10  3.1710E-10   0.000    
        0.000       0.000       0.000       0.000       0.000       0.000       0.000       0.000    
   6   3.1710E-10  3.1710E-10  3.1710E-10  3.1710E-10  3.1710E-10  3.1710E-10  3.1710E-10  3.1710E-10  3.1710E-10   0.000    
        0.000       0.000       0.000       0.000       0.000       0.000       0.000       0.000    
   7   3.1710E-10  3.1710E-10  3.1710E-10  3.1710E-10  3.1710E-10  3.1710E-10  3.1710E-10  3.1710E-10  3.1710E-10   0.000    
        0.000       0.000       0.000       0.000       0.000       0.000       0.000       0.000    
   8   3.1710E-10  3.1710E-10  3.1710E-10  3.1710E-10  3.1710E-10  3.1710E-10  3.1710E-10  3.1710E-10  3.1710E-10   0.000    
        0.000       0.000       0.000       0.000       0.000       0.000       0.000       0.000    
   9   3.1710E-10  3.1710E-10  3.1710E-10  3.1710E-10  3.1710E-10  3.1710E-10  3.1710E-10  3.1710E-10  3.1710E-10   0.000    
        0.000       0.000       0.000       0.000       0.000       0.000       0.000       0.000    
  10   3.1710E-10  3.1710E-10  3.1710E-10  3.1710E-10  3.1710E-10  3.1710E-10  3.1710E-10  3.1710E-10  3.1710E-10   0.000    
        0.000       0.000       0.000       0.000       0.000       0.000       0.000       0.000    
  11   3.1710E-10  3.1710E-10  3.1710E-10  3.1710E-10  3.1710E-10  3.1710E-10  3.1710E-10  3.1710E-10  3.1710E-10   0.000    
        0.000       0.000       0.000       0.000       0.000       0.000       0.000       0.000    
  12   3.1710E-10  3.1710E-10  3.1710E-10  3.1710E-10  3.1710E-10  3.1710E-10  3.1710E-10  3.1710E-10  3.1710E-10   0.000    
        0.000       0.000       0.000       0.000       0.000       0.000       0.000       0.000    
  13   3.1710E-10  3.1710E-10  3.1710E-10  3.1710E-10  3.1710E-10  3.1710E-10  3.1710E-10  3.1710E-10  3.1710E-10   0.000    
        0.000       0.000       0.000       0.000       0.000       0.000       0.000       0.000    
  14   3.1710E-10  3.1710E-10  3.1710E-10  3.1710E-10  3.1710E-10  3.1710E-10  3.1710E-10  3.1710E-10  3.1710E-10   0.000    
        0.000       0.000       0.000       0.000       0.000       0.000       0.000       0.000    
  15   3.1710E-10  3.1710E-10  3.1710E-10  3.1710E-10  3.1710E-10  3.1710E-10  3.1710E-10  3.1710E-10  3.1710E-10   0.000    
        0.000       0.000       0.000       0.000       0.000       0.000       0.000       0.000    
  16   3.1710E-10  3.1710E-10  3.1710E-10  3.1710E-10  3.1710E-10  3.1710E-10  3.1710E-10  3.1710E-10  3.1710E-10   0.000    
        0.000       0.000       0.000       0.000       0.000       0.000       0.000       0.000    
  17   3.1710E-10  3.1710E-10  3.1710E-10  3.1710E-10  3.1710E-10  3.1710E-10  3.1710E-10  3.1710E-10  3.1710E-10   0.000    
        0.000       0.000       0.000       0.000       0.000       0.000       0.000       0.000    
  18   3.1710E-10  3.1710E-10  3.1710E-10  3.1710E-10  3.1710E-10  3.1710E-10  3.1710E-10  3.1710E-10  3.1710E-10   0.000    
        0.000       0.000       0.000       0.000       0.000       0.000       0.000       0.000    



            MULT. ARRAY: R_Mult_2  
 READING ON UNIT   16 WITH FORMAT: (FREE)              

            1           2           3           4           5           6           7           8           9          10
           11          12          13          14          15          16          17          18
 ........................................................................................................................
   1   3.1710E-10  3.1710E-10  3.1710E-10  3.1710E-10  3.1710E-10  3.1710E-10  3.1710E-10  3.1710E-10  3.1710E-10   0.000    
        0.000       0.000       0.000       0.000       0.000       0.000       0.000       0.000    
   2   3.1710E-10  3.1710E-10  3.1710E-10  3.1710E-10  3.1710E-10  3.1710E-10  3.1710E-10  3.1710E-10  3.1710E-10   0.000    
        0.000       0.000       0.000       0.000       0.000       0.000       0.000       0.000    
   3   3.1710E-10  3.1710E-10  3.1710E-10  3.1710E-10  3.1710E-10  3.1710E-10  3.1710E-10  3.1710E-10  3.1710E-10   0.000    
        0.000       0.000       0.000       0.000       0.000       0.000       0.000       0.000    
   4   3.1710E-10  3.1710E-10  3.1710E-10  3.1710E-10  3.1710E-10  3.1710E-10  3.1710E-10  3.1710E-10  3.1710E-10   0.000    
        0.000       0.000       0.000       0.000       0.000       0.000       0.000       0.000    
   5   3.1710E-10  3.1710E-10  3.1710E-10  3.1710E-10  3.1710E-10  3.1710E-10  3.1710E-10  3.1710E-10  3.1710E-10   0.000    
        0.000       0.000       0.000       0.000       0.000       0.000       0.000       0.000    
   6   3.1710E-10  3.1710E-10  3.1710E-10  3.1710E-10  3.1710E-10  3.1710E-10  3.1710E-10  3.1710E-10  3.1710E-10   0.000    
        0.000       0.000       0.000       0.000       0.000       0.000       0.000       0.000    
   7   3.1710E-10  3.1710E-10  3.1710E-10  3.1710E-10  3.1710E-10  3.1710E-10  3.1710E-10  3.1710E-10  3.1710E-10   0.000    
        0.000       0.000       0.000       0.000       0.000       0.000       0.000       0.000    
   8   3.1710E-10  3.1710E-10  3.1710E-10  3.1710E-10  3.1710E-10  3.1710E-10  3.1710E-10  3.1710E-10  3.1710E-10   0.000    
        0.000       0.000       0.000       0.000       0.000       0.000       0.000       0.000    
   9   3.1710E-10  3.1710E-10  3.1710E-10  3.1710E-10  3.1710E-10  3.1710E-10  3.1710E-10  3.1710E-10  3.1710E-10   0.000    
        0.000       0.000       0.000       0.000       0.000       0.000       0.000       0.000    
  10   3.1710E-10  3.1710E-10  3.1710E-10  3.1710E-10  3.1710E-10  3.1710E-10  3.1710E-10  3.1710E-10  3.1710E-10   0.000    
        0.000       0.000       0.000       0.000       0.000       0.000       0.000       0.000    
  11   3.1710E-10  3.1710E-10  3.1710E-10  3.1710E-10  3.1710E-10  3.1710E-10  3.1710E-10  3.1710E-10  3.1710E-10   0.000    
        0.000       0.000       0.000       0.000       0.000       0.000       0.000       0.000    
  12   3.1710E-10  3.1710E-10  3.1710E-10  3.1710E-10  3.1710E-10  3.1710E-10  3.1710E-10  3.1710E-10  3.1710E-10   0.000    
        0.000       0.000       0.000       0.000       0.000       0.000       0.000       0.000    
  13   3.1710E-10  3.1710E-10  3.1710E-10  3.1710E-10  3.1710E-10  3.1710E-10  3.1710E-10  3.1710E-10  3.1710E-10   0.000    
        0.000       0.000       0.000       0.000       0.000       0.000       0.000       0.000    
  14   3.1710E-10  3.1710E-10  3.1710E-10  3.1710E-10  3.1710E-10  3.1710E-10  3.1710E-10  3.1710E-10  3.1710E-10   0.000    
        0.000       0.000       0.000       0.000       0.000       0.000       0.000       0.000    
  15   3.1710E-10  3.1710E-10  3.1710E-10  3.1710E-10  3.1710E-10  3.1710E-10  3.1710E-10  3.1710E-10  3.1710E-10   0.000    
        0.000       0.000       0.000       0.000       0.000       0.000       0.000       0.000    
  16   3.1710E-10  3.1710E-10  3.1710E-10  3.1710E-10  3.1710E-10  3.1710E-10  3.1710E-10  3.1710E-10  3.1710E-10   0.000    
        0.000       0.000       0.000       0.000       0.000       0.000       0.000       0.000    
  17   3.1710E-10  3.1710E-10  3.1710E-10  3.1710E-10  3.1710E-10  3.1710E-10  3.1710E-10  3.1710E-10  3.1710E-10   0.000    
        0.000       0.000       0.000       0.000       0.000       0.000       0.000       0.000    
  18   3.1710E-10  3.1710E-10  3.1710E-10  3.1710E-10  3.1710E-10  3.1710E-10  3.1710E-10  3.1710E-10  3.1710E-10   0.000    
        0.000       0.000       0.000       0.000       0.000       0.000       0.000       0.000    



            MULT. ARRAY: R_Mult_3  
 READING ON UNIT   16 WITH FORMAT: (FREE)              

            1           2           3           4           5           6           7           8           9          10
           11          12          13          14          15          16          17          18
 ........................................................................................................................
   1   3.1710E-10  3.1710E-10  3.1710E-10  3.1710E-10  3.1710E-10  3.1710E-10  3.1710E-10  3.1710E-10  3.1710E-10   0.000    
        0.000       0.000       0.000       0.000       0.000       0.000       0.000       0.000    
   2   3.1710E-10  3.1710E-10  3.1710E-10  3.1710E-10  3.1710E-10  3.1710E-10  3.1710E-10  3.1710E-10  3.1710E-10   0.000    
        0.000       0.000       0.000       0.000       0.000       0.000       0.000       0.000    
   3   3.1710E-10  3.1710E-10  3.1710E-10  3.1710E-10  3.1710E-10  3.1710E-10  3.1710E-10  3.1710E-10  3.1710E-10   0.000    
        0.000       0.000       0.000       0.000       0.000       0.000       0.000       0.000    
   4   3.1710E-10  3.1710E-10  3.1710E-10  3.1710E-10  3.1710E-10  3.1710E-10  3.1710E-10  3.1710E-10  3.1710E-10   0.000    
        0.000       0.000       0.000       0.000       0.000       0.000       0.000       0.000    
   5   3.1710E-10  3.1710E-10  3.1710E-10  3.1710E-10  3.1710E-10  3.1710E-10  3.1710E-10  3.1710E-10  3.1710E-10   0.000    
        0.000       0.000       0.000       0.000       0.000       0.000       0.000       0.000    
   6   3.1710E-10  3.1710E-10  3.1710E-10  3.1710E-10  3.1710E-10  3.1710E-10  3.1710E-10  3.1710E-10  3.1710E-10   0.000    
        0.000       0.000       0.000       0.000       0.000       0.000       0.000       0.000    
   7   3.1710E-10  3.1710E-10  3.1710E-10  3.1710E-10  3.1710E-10  3.1710E-10  3.1710E-10  3.1710E-10  3.1710E-10   0.000    
        0.000       0.000       0.000       0.000       0.000       0.000       0.000       0.000    
   8   3.1710E-10  3.1710E-10  3.1710E-10  3.1710E-10  3.1710E-10  3.1710E-10  3.1710E-10  3.1710E-10  3.1710E-10   0.000    
        0.000       0.000       0.000       0.000       0.000       0.000       0.000       0.000    
   9   3.1710E-10  3.1710E-10  3.1710E-10  3.1710E-10  3.1710E-10  3.1710E-10  3.1710E-10  3.1710E-10  3.1710E-10   0.000    
        0.000       0.000       0.000       0.000       0.000       0.000       0.000       0.000    
  10   3.1710E-10  3.1710E-10  3.1710E-10  3.1710E-10  3.1710E-10  3.1710E-10  3.1710E-10  3.1710E-10  3.1710E-10   0.000    
        0.000       0.000       0.000       0.000       0.000       0.000       0.000       0.000    
  11   3.1710E-10  3.1710E-10  3.1710E-10  3.1710E-10  3.1710E-10  3.1710E-10  3.1710E-10  3.1710E-10  3.1710E-10   0.000    
        0.000       0.000       0.000       0.000       0.000       0.000       0.000       0.000    
  12   3.1710E-10  3.1710E-10  3.1710E-10  3.1710E-10  3.1710E-10  3.1710E-10  3.1710E-10  3.1710E-10  3.1710E-10   0.000    
        0.000       0.000       0.000       0.000       0.000       0.000       0.000       0.000    
  13   3.1710E-10  3.1710E-10  3.1710E-10  3.1710E-10  3.1710E-10  3.1710E-10  3.1710E-10  3.1710E-10  3.1710E-10   0.000    
        0.000       0.000       0.000       0.000       0.000       0.000       0.000       0.000    
  14   3.1710E-10  3.1710E-10  3.1710E-10  3.1710E-10  3.1710E-10  3.1710E-10  3.1710E-10  3.1710E-10  3.1710E-10   0.000    
        0.000       0.000       0.000       0.000       0.000       0.000       0.000       0.000    
  15   3.1710E-10  3.1710E-10  3.1710E-10  3.1710E-10  3.1710E-10  3.1710E-10  3.1710E-10  3.1710E-10  3.1710E-10   0.000    
        0.000       0.000       0.000       0.000       0.000       0.000       0.000       0.000    
  16   3.1710E-10  3.1710E-10  3.1710E-10  3.1710E-10  3.1710E-10  3.1710E-10  3.1710E-10  3.1710E-10  3.1710E-10   0.000    
        0.000       0.000       0.000       0.000       0.000       0.000       0.000       0.000    
  17   3.1710E-10  3.1710E-10  3.1710E-10  3.1710E-10  3.1710E-10  3.1710E-10  3.1710E-10  3.1710E-10  3.1710E-10   0.000    
        0.000       0.000       0.000       0.000       0.000       0.000       0.000       0.000    
  18   3.1710E-10  3.1710E-10  3.1710E-10  3.1710E-10  3.1710E-10  3.1710E-10  3.1710E-10  3.1710E-10  3.1710E-10   0.000    
        0.000       0.000       0.000       0.000       0.000       0.000       0.000       0.000    



            MULT. ARRAY: R_Mult_4  
 READING ON UNIT   16 WITH FORMAT: (FREE)              

            1           2           3           4           5           6           7           8           9          10
           11          12          13          14          15          16          17          18
 ........................................................................................................................
   1   3.1710E-10  3.1710E-10  3.1710E-10  3.1710E-10  3.1710E-10  3.1710E-10  3.1710E-10  3.1710E-10  3.1710E-10   0.000    
        0.000       0.000       0.000       0.000       0.000       0.000       0.000       0.000    
   2   3.1710E-10  3.1710E-10  3.1710E-10  3.1710E-10  3.1710E-10  3.1710E-10  3.1710E-10  3.1710E-10  3.1710E-10   0.000    
        0.000       0.000       0.000       0.000       0.000       0.000       0.000       0.000    
   3   3.1710E-10  3.1710E-10  3.1710E-10  3.1710E-10  3.1710E-10  3.1710E-10  3.1710E-10  3.1710E-10  3.1710E-10   0.000    
        0.000       0.000       0.000       0.000       0.000       0.000       0.000       0.000    
   4   3.1710E-10  3.1710E-10  3.1710E-10  3.1710E-10  3.1710E-10  3.1710E-10  3.1710E-10  3.1710E-10  3.1710E-10   0.000    
        0.000       0.000       0.000       0.000       0.000       0.000       0.000       0.000    
   5   3.1710E-10  3.1710E-10  3.1710E-10  3.1710E-10  3.1710E-10  3.1710E-10  3.1710E-10  3.1710E-10  3.1710E-10   0.000    
        0.000       0.000       0.000       0.000       0.000       0.000       0.000       0.000    
   6   3.1710E-10  3.1710E-10  3.1710E-10  3.1710E-10  3.1710E-10  3.1710E-10  3.1710E-10  3.1710E-10  3.1710E-10   0.000    
        0.000       0.000       0.000       0.000       0.000       0.000       0.000       0.000    
   7   3.1710E-10  3.1710E-10  3.1710E-10  3.1710E-10  3.1710E-10  3.1710E-10  3.1710E-10  3.1710E-10  3.1710E-10   0.000    
        0.000       0.000       0.000       0.000       0.000       0.000       0.000       0.000    
   8   3.1710E-10  3.1710E-10  3.1710E-10  3.1710E-10  3.1710E-10  3.1710E-10  3.1710E-10  3.1710E-10  3.1710E-10   0.000    
        0.000       0.000       0.000       0.000       0.000       0.000       0.000       0.000    
   9   3.1710E-10  3.1710E-10  3.1710E-10  3.1710E-10  3.1710E-10  3.1710E-10  3.1710E-10  3.1710E-10  3.1710E-10   0.000    
        0.000       0.000       0.000       0.000       0.000       0.000       0.000       0.000    
  10   3.1710E-10  3.1710E-10  3.1710E-10  3.1710E-10  3.1710E-10  3.1710E-10  3.1710E-10  3.1710E-10  3.1710E-10   0.000    
        0.000       0.000       0.000       0.000       0.000       0.000       0.000       0.000    
  11   3.1710E-10  3.1710E-10  3.1710E-10  3.1710E-10  3.1710E-10  3.1710E-10  3.1710E-10  3.1710E-10  3.1710E-10   0.000    
        0.000       0.000       0.000       0.000       0.000       0.000       0.000       0.000    
  12   3.1710E-10  3.1710E-10  3.1710E-10  3.1710E-10  3.1710E-10  3.1710E-10  3.1710E-10  3.1710E-10  3.1710E-10   0.000    
        0.000       0.000       0.000       0.000       0.000       0.000       0.000       0.000    
  13   3.1710E-10  3.1710E-10  3.1710E-10  3.1710E-10  3.1710E-10  3.1710E-10  3.1710E-10  3.1710E-10  3.1710E-10   0.000    
        0.000       0.000       0.000       0.000       0.000       0.000       0.000       0.000    
  14   3.1710E-10  3.1710E-10  3.1710E-10  3.1710E-10  3.1710E-10  3.1710E-10  3.1710E-10  3.1710E-10  3.1710E-10   0.000    
        0.000       0.000       0.000       0.000       0.000       0.000       0.000       0.000    
  15   3.1710E-10  3.1710E-10  3.1710E-10  3.1710E-10  3.1710E-10  3.1710E-10  3.1710E-10  3.1710E-10  3.1710E-10   0.000    
        0.000       0.000       0.000       0.000       0.000       0.000       0.000       0.000    
  16   3.1710E-10  3.1710E-10  3.1710E-10  3.1710E-10  3.1710E-10  3.1710E-10  3.1710E-10  3.1710E-10  3.1710E-10   0.000    
        0.000       0.000       0.000       0.000       0.000       0.000       0.000       0.000    
  17   3.1710E-10  3.1710E-10  3.1710E-10  3.1710E-10  3.1710E-10  3.1710E-10  3.1710E-10  3.1710E-10  3.1710E-10   0.000    
        0.000       0.000       0.000       0.000       0.000       0.000       0.000       0.000    
  18   3.1710E-10  3.1710E-10  3.1710E-10  3.1710E-10  3.1710E-10  3.1710E-10  3.1710E-10  3.1710E-10  3.1710E-10   0.000    
        0.000       0.000       0.000       0.000       0.000       0.000       0.000       0.000    



            MULT. ARRAY: R_Mult_5  
 READING ON UNIT   16 WITH FORMAT: (FREE)              

            1           2           3           4           5           6           7           8           9          10
           11          12          13          14          15          16          17          18
 ........................................................................................................................
   1   3.1710E-10  3.1710E-10  3.1710E-10  3.1710E-10  3.1710E-10  3.1710E-10  3.1710E-10  3.1710E-10  3.1710E-10   0.000    
        0.000       0.000       0.000       0.000       0.000       0.000       0.000       0.000    
   2   3.1710E-10  3.1710E-10  3.1710E-10  3.1710E-10  3.1710E-10  3.1710E-10  3.1710E-10  3.1710E-10  3.1710E-10   0.000    
        0.000       0.000       0.000       0.000       0.000       0.000       0.000       0.000    
   3   3.1710E-10  3.1710E-10  3.1710E-10  3.1710E-10  3.1710E-10  3.1710E-10  3.1710E-10  3.1710E-10  3.1710E-10   0.000    
        0.000       0.000       0.000       0.000       0.000       0.000       0.000       0.000    
   4   3.1710E-10  3.1710E-10  3.1710E-10  3.1710E-10  3.1710E-10  3.1710E-10  3.1710E-10  3.1710E-10  3.1710E-10   0.000    
        0.000       0.000       0.000       0.000       0.000       0.000       0.000       0.000    
   5   3.1710E-10  3.1710E-10  3.1710E-10  3.1710E-10  3.1710E-10  3.1710E-10  3.1710E-10  3.1710E-10  3.1710E-10   0.000    
        0.000       0.000       0.000       0.000       0.000       0.000       0.000       0.000    
   6   3.1710E-10  3.1710E-10  3.1710E-10  3.1710E-10  3.1710E-10  3.1710E-10  3.1710E-10  3.1710E-10  3.1710E-10   0.000    
        0.000       0.000       0.000       0.000       0.000       0.000       0.000       0.000    
   7   3.1710E-10  3.1710E-10  3.1710E-10  3.1710E-10  3.1710E-10  3.1710E-10  3.1710E-10  3.1710E-10  3.1710E-10   0.000    
        0.000       0.000       0.000       0.000       0.000       0.000       0.000       0.000    
   8   3.1710E-10  3.1710E-10  3.1710E-10  3.1710E-10  3.1710E-10  3.1710E-10  3.1710E-10  3.1710E-10  3.1710E-10   0.000    
        0.000       0.000       0.000       0.000       0.000       0.000       0.000       0.000    
   9   3.1710E-10  3.1710E-10  3.1710E-10  3.1710E-10  3.1710E-10  3.1710E-10  3.1710E-10  3.1710E-10  3.1710E-10   0.000    
        0.000       0.000       0.000       0.000       0.000       0.000       0.000       0.000    
  10   3.1710E-10  3.1710E-10  3.1710E-10  3.1710E-10  3.1710E-10  3.1710E-10  3.1710E-10  3.1710E-10  3.1710E-10   0.000    
        0.000       0.000       0.000       0.000       0.000       0.000       0.000       0.000    
  11   3.1710E-10  3.1710E-10  3.1710E-10  3.1710E-10  3.1710E-10  3.1710E-10  3.1710E-10  3.1710E-10  3.1710E-10   0.000    
        0.000       0.000       0.000       0.000       0.000       0.000       0.000       0.000    
  12   3.1710E-10  3.1710E-10  3.1710E-10  3.1710E-10  3.1710E-10  3.1710E-10  3.1710E-10  3.1710E-10  3.1710E-10   0.000    
        0.000       0.000       0.000       0.000       0.000       0.000       0.000       0.000    
  13   3.1710E-10  3.1710E-10  3.1710E-10  3.1710E-10  3.1710E-10  3.1710E-10  3.1710E-10  3.1710E-10  3.1710E-10   0.000    
        0.000       0.000       0.000       0.000       0.000       0.000       0.000       0.000    
  14   3.1710E-10  3.1710E-10  3.1710E-10  3.1710E-10  3.1710E-10  3.1710E-10  3.1710E-10  3.1710E-10  3.1710E-10   0.000    
        0.000       0.000       0.000       0.000       0.000       0.000       0.000       0.000    
  15   3.1710E-10  3.1710E-10  3.1710E-10  3.1710E-10  3.1710E-10  3.1710E-10  3.1710E-10  3.1710E-10  3.1710E-10   0.000    
        0.000       0.000       0.000       0.000       0.000       0.000       0.000       0.000    
  16   3.1710E-10  3.1710E-10  3.1710E-10  3.1710E-10  3.1710E-10  3.1710E-10  3.1710E-10  3.1710E-10  3.1710E-10   0.000    
        0.000       0.000       0.000       0.000       0.000       0.000       0.000       0.000    
  17   3.1710E-10  3.1710E-10  3.1710E-10  3.1710E-10  3.1710E-10  3.1710E-10  3.1710E-10  3.1710E-10  3.1710E-10   0.000    
        0.000       0.000       0.000       0.000       0.000       0.000       0.000       0.000    
  18   3.1710E-10  3.1710E-10  3.1710E-10  3.1710E-10  3.1710E-10  3.1710E-10  3.1710E-10  3.1710E-10  3.1710E-10   0.000    
        0.000       0.000       0.000       0.000       0.000       0.000       0.000       0.000    



            MULT. ARRAY: R_Mult_6  
 READING ON UNIT   16 WITH FORMAT: (FREE)              

            1           2           3           4           5           6           7           8           9          10
           11          12          13          14          15          16          17          18
 ........................................................................................................................
   1    0.000       0.000       0.000       0.000       0.000       0.000       0.000       0.000       0.000      3.1710E-10
       3.1710E-10  3.1710E-10  3.1710E-10  3.1710E-10  3.1710E-10  3.1710E-10  3.1710E-10  3.1710E-10
   2    0.000       0.000       0.000       0.000       0.000       0.000       0.000       0.000       0.000      3.1710E-10
       3.1710E-10  3.1710E-10  3.1710E-10  3.1710E-10  3.1710E-10  3.1710E-10  3.1710E-10  3.1710E-10
   3    0.000       0.000       0.000       0.000       0.000       0.000       0.000       0.000       0.000      3.1710E-10
       3.1710E-10  3.1710E-10  3.1710E-10  3.1710E-10  3.1710E-10  3.1710E-10  3.1710E-10  3.1710E-10
   4    0.000       0.000       0.000       0.000       0.000       0.000       0.000       0.000       0.000      3.1710E-10
       3.1710E-10  3.1710E-10  3.1710E-10  3.1710E-10  3.1710E-10  3.1710E-10  3.1710E-10  3.1710E-10
   5    0.000       0.000       0.000       0.000       0.000       0.000       0.000       0.000       0.000      3.1710E-10
       3.1710E-10  3.1710E-10  3.1710E-10  3.1710E-10  3.1710E-10  3.1710E-10  3.1710E-10  3.1710E-10
   6    0.000       0.000       0.000       0.000       0.000       0.000       0.000       0.000       0.000      3.1710E-10
       3.1710E-10  3.1710E-10  3.1710E-10  3.1710E-10  3.1710E-10  3.1710E-10  3.1710E-10  3.1710E-10
   7    0.000       0.000       0.000       0.000       0.000       0.000       0.000       0.000       0.000      3.1710E-10
       3.1710E-10  3.1710E-10  3.1710E-10  3.1710E-10  3.1710E-10  3.1710E-10  3.1710E-10  3.1710E-10
   8    0.000       0.000       0.000       0.000       0.000       0.000       0.000       0.000       0.000      3.1710E-10
       3.1710E-10  3.1710E-10  3.1710E-10  3.1710E-10  3.1710E-10  3.1710E-10  3.1710E-10  3.1710E-10
   9    0.000       0.000       0.000       0.000       0.000       0.000       0.000       0.000       0.000      3.1710E-10
       3.1710E-10  3.1710E-10  3.1710E-10  3.1710E-10  3.1710E-10  3.1710E-10  3.1710E-10  3.1710E-10
  10    0.000       0.000       0.000       0.000       0.000       0.000       0.000       0.000       0.000      3.1710E-10
       3.1710E-10  3.1710E-10  3.1710E-10  3.1710E-10  3.1710E-10  3.1710E-10  3.1710E-10  3.1710E-10
  11    0.000       0.000       0.000       0.000       0.000       0.000       0.000       0.000       0.000      3.1710E-10
       3.1710E-10  3.1710E-10  3.1710E-10  3.1710E-10  3.1710E-10  3.1710E-10  3.1710E-10  3.1710E-10
  12    0.000       0.000       0.000       0.000       0.000       0.000       0.000       0.000       0.000      3.1710E-10
       3.1710E-10  3.1710E-10  3.1710E-10  3.1710E-10  3.1710E-10  3.1710E-10  3.1710E-10  3.1710E-10
  13    0.000       0.000       0.000       0.000       0.000       0.000       0.000       0.000       0.000      3.1710E-10
       3.1710E-10  3.1710E-10  3.1710E-10  3.1710E-10  3.1710E-10  3.1710E-10  3.1710E-10  3.1710E-10
  14    0.000       0.000       0.000       0.000       0.000       0.000       0.000       0.000       0.000      3.1710E-10
       3.1710E-10  3.1710E-10  3.1710E-10  3.1710E-10  3.1710E-10  3.1710E-10  3.1710E-10  3.1710E-10
  15    0.000       0.000       0.000       0.000       0.000       0.000       0.000       0.000       0.000      3.1710E-10
       3.1710E-10  3.1710E-10  3.1710E-10  3.1710E-10  3.1710E-10  3.1710E-10  3.1710E-10  3.1710E-10
  16    0.000       0.000       0.000       0.000       0.000       0.000       0.000       0.000       0.000      3.1710E-10
       3.1710E-10  3.1710E-10  3.1710E-10  3.1710E-10  3.1710E-10  3.1710E-10  3.1710E-10  3.1710E-10
  17    0.000       0.000       0.000       0.000       0.000       0.000       0.000       0.000       0.000      3.1710E-10
       3.1710E-10  3.1710E-10  3.1710E-10  3.1710E-10  3.1710E-10  3.1710E-10  3.1710E-10  3.1710E-10
  18    0.000       0.000       0.000       0.000       0.000       0.000       0.000       0.000       0.000      3.1710E-10
       3.1710E-10  3.1710E-10  3.1710E-10  3.1710E-10  3.1710E-10  3.1710E-10  3.1710E-10  3.1710E-10



            MULT. ARRAY: R_Mult_7  
 READING ON UNIT   16 WITH FORMAT: (FREE)              

            1           2           3           4           5           6           7           8           9          10
           11          12          13          14          15          16          17          18
 ........................................................................................................................
   1    0.000       0.000       0.000       0.000       0.000       0.000       0.000       0.000       0.000      3.1710E-10
       3.1710E-10  3.1710E-10  3.1710E-10  3.1710E-10  3.1710E-10  3.1710E-10  3.1710E-10  3.1710E-10
   2    0.000       0.000       0.000       0.000       0.000       0.000       0.000       0.000       0.000      3.1710E-10
       3.1710E-10  3.1710E-10  3.1710E-10  3.1710E-10  3.1710E-10  3.1710E-10  3.1710E-10  3.1710E-10
   3    0.000       0.000       0.000       0.000       0.000       0.000       0.000       0.000       0.000      3.1710E-10
       3.1710E-10  3.1710E-10  3.1710E-10  3.1710E-10  3.1710E-10  3.1710E-10  3.1710E-10  3.1710E-10
   4    0.000       0.000       0.000       0.000       0.000       0.000       0.000       0.000       0.000      3.1710E-10
       3.1710E-10  3.1710E-10  3.1710E-10  3.1710E-10  3.1710E-10  3.1710E-10  3.1710E-10  3.1710E-10
   5    0.000       0.000       0.000       0.000       0.000       0.000       0.000       0.000       0.000      3.1710E-10
       3.1710E-10  3.1710E-10  3.1710E-10  3.1710E-10  3.1710E-10  3.1710E-10  3.1710E-10  3.1710E-10
   6    0.000       0.000       0.000       0.000       0.000       0.000       0.000       0.000       0.000      3.1710E-10
       3.1710E-10  3.1710E-10  3.1710E-10  3.1710E-10  3.1710E-10  3.1710E-10  3.1710E-10  3.1710E-10
   7    0.000       0.000       0.000       0.000       0.000       0.000       0.000       0.000       0.000      3.1710E-10
       3.1710E-10  3.1710E-10  3.1710E-10  3.1710E-10  3.1710E-10  3.1710E-10  3.1710E-10  3.1710E-10
   8    0.000       0.000       0.000       0.000       0.000       0.000       0.000       0.000       0.000      3.1710E-10
       3.1710E-10  3.1710E-10  3.1710E-10  3.1710E-10  3.1710E-10  3.1710E-10  3.1710E-10  3.1710E-10
   9    0.000       0.000       0.000       0.000       0.000       0.000       0.000       0.000       0.000      3.1710E-10
       3.1710E-10  3.1710E-10  3.1710E-10  3.1710E-10  3.1710E-10  3.1710E-10  3.1710E-10  3.1710E-10
  10    0.000       0.000       0.000       0.000       0.000       0.000       0.000       0.000       0.000      3.1710E-10
       3.1710E-10  3.1710E-10  3.1710E-10  3.1710E-10  3.1710E-10  3.1710E-10  3.1710E-10  3.1710E-10
  11    0.000       0.000       0.000       0.000       0.000       0.000       0.000       0.000       0.000      3.1710E-10
       3.1710E-10  3.1710E-10  3.1710E-10  3.1710E-10  3.1710E-10  3.1710E-10  3.1710E-10  3.1710E-10
  12    0.000       0.000       0.000       0.000       0.000       0.000       0.000       0.000       0.000      3.1710E-10
       3.1710E-10  3.1710E-10  3.1710E-10  3.1710E-10  3.1710E-10  3.1710E-10  3.1710E-10  3.1710E-10
  13    0.000       0.000       0.000       0.000       0.000       0.000       0.000       0.000       0.000      3.1710E-10
       3.1710E-10  3.1710E-10  3.1710E-10  3.1710E-10  3.1710E-10  3.1710E-10  3.1710E-10  3.1710E-10
  14    0.000       0.000       0.000       0.000       0.000       0.000       0.000       0.000       0.000      3.1710E-10
       3.1710E-10  3.1710E-10  3.1710E-10  3.1710E-10  3.1710E-10  3.1710E-10  3.1710E-10  3.1710E-10
  15    0.000       0.000       0.000       0.000       0.000       0.000       0.000       0.000       0.000      3.1710E-10
       3.1710E-10  3.1710E-10  3.1710E-10  3.1710E-10  3.1710E-10  3.1710E-10  3.1710E-10  3.1710E-10
  16    0.000       0.000       0.000       0.000       0.000       0.000       0.000       0.000       0.000      3.1710E-10
       3.1710E-10  3.1710E-10  3.1710E-10  3.1710E-10  3.1710E-10  3.1710E-10  3.1710E-10  3.1710E-10
  17    0.000       0.000       0.000       0.000       0.000       0.000       0.000       0.000       0.000      3.1710E-10
       3.1710E-10  3.1710E-10  3.1710E-10  3.1710E-10  3.1710E-10  3.1710E-10  3.1710E-10  3.1710E-10
  18    0.000       0.000       0.000       0.000       0.000       0.000       0.000       0.000       0.000      3.1710E-10
       3.1710E-10  3.1710E-10  3.1710E-10  3.1710E-10  3.1710E-10  3.1710E-10  3.1710E-10  3.1710E-10



            MULT. ARRAY: R_Mult_8  
 READING ON UNIT   16 WITH FORMAT: (FREE)              

            1           2           3           4           5           6           7           8           9          10
           11          12          13          14          15          16          17          18
 ........................................................................................................................
   1    0.000       0.000       0.000       0.000       0.000       0.000       0.000       0.000       0.000      3.1710E-10
       3.1710E-10  3.1710E-10  3.1710E-10  3.1710E-10  3.1710E-10  3.1710E-10  3.1710E-10  3.1710E-10
   2    0.000       0.000       0.000       0.000       0.000       0.000       0.000       0.000       0.000      3.1710E-10
       3.1710E-10  3.1710E-10  3.1710E-10  3.1710E-10  3.1710E-10  3.1710E-10  3.1710E-10  3.1710E-10
   3    0.000       0.000       0.000       0.000       0.000       0.000       0.000       0.000       0.000      3.1710E-10
       3.1710E-10  3.1710E-10  3.1710E-10  3.1710E-10  3.1710E-10  3.1710E-10  3.1710E-10  3.1710E-10
   4    0.000       0.000       0.000       0.000       0.000       0.000       0.000       0.000       0.000      3.1710E-10
       3.1710E-10  3.1710E-10  3.1710E-10  3.1710E-10  3.1710E-10  3.1710E-10  3.1710E-10  3.1710E-10
   5    0.000       0.000       0.000       0.000       0.000       0.000       0.000       0.000       0.000      3.1710E-10
       3.1710E-10  3.1710E-10  3.1710E-10  3.1710E-10  3.1710E-10  3.1710E-10  3.1710E-10  3.1710E-10
   6    0.000       0.000       0.000       0.000       0.000       0.000       0.000       0.000       0.000      3.1710E-10
       3.1710E-10  3.1710E-10  3.1710E-10  3.1710E-10  3.1710E-10  3.1710E-10  3.1710E-10  3.1710E-10
   7    0.000       0.000       0.000       0.000       0.000       0.000       0.000       0.000       0.000      3.1710E-10
       3.1710E-10  3.1710E-10  3.1710E-10  3.1710E-10  3.1710E-10  3.1710E-10  3.1710E-10  3.1710E-10
   8    0.000       0.000       0.000       0.000       0.000       0.000       0.000       0.000       0.000      3.1710E-10
       3.1710E-10  3.1710E-10  3.1710E-10  3.1710E-10  3.1710E-10  3.1710E-10  3.1710E-10  3.1710E-10
   9    0.000       0.000       0.000       0.000       0.000       0.000       0.000       0.000       0.000      3.1710E-10
       3.1710E-10  3.1710E-10  3.1710E-10  3.1710E-10  3.1710E-10  3.1710E-10  3.1710E-10  3.1710E-10
  10    0.000       0.000       0.000       0.000       0.000       0.000       0.000       0.000       0.000      3.1710E-10
       3.1710E-10  3.1710E-10  3.1710E-10  3.1710E-10  3.1710E-10  3.1710E-10  3.1710E-10  3.1710E-10
  11    0.000       0.000       0.000       0.000       0.000       0.000       0.000       0.000       0.000      3.1710E-10
       3.1710E-10  3.1710E-10  3.1710E-10  3.1710E-10  3.1710E-10  3.1710E-10  3.1710E-10  3.1710E-10
  12    0.000       0.000       0.000       0.000       0.000       0.000       0.000       0.000       0.000      3.1710E-10
       3.1710E-10  3.1710E-10  3.1710E-10  3.1710E-10  3.1710E-10  3.1710E-10  3.1710E-10  3.1710E-10
  13    0.000       0.000       0.000       0.000       0.000       0.000       0.000       0.000       0.000      3.1710E-10
       3.1710E-10  3.1710E-10  3.1710E-10  3.1710E-10  3.1710E-10  3.1710E-10  3.1710E-10  3.1710E-10
  14    0.000       0.000       0.000       0.000       0.000       0.000       0.000       0.000       0.000      3.1710E-10
       3.1710E-10  3.1710E-10  3.1710E-10  3.1710E-10  3.1710E-10  3.1710E-10  3.1710E-10  3.1710E-10
  15    0.000       0.000       0.000       0.000       0.000       0.000       0.000       0.000       0.000      3.1710E-10
       3.1710E-10  3.1710E-10  3.1710E-10  3.1710E-10  3.1710E-10  3.1710E-10  3.1710E-10  3.1710E-10
  16    0.000       0.000       0.000       0.000       0.000       0.000       0.000       0.000       0.000      3.1710E-10
       3.1710E-10  3.1710E-10  3.1710E-10  3.1710E-10  3.1710E-10  3.1710E-10  3.1710E-10  3.1710E-10
  17    0.000       0.000       0.000       0.000       0.000       0.000       0.000       0.000       0.000      3.1710E-10
       3.1710E-10  3.1710E-10  3.1710E-10  3.1710E-10  3.1710E-10  3.1710E-10  3.1710E-10  3.1710E-10
  18    0.000       0.000       0.000       0.000       0.000       0.000       0.000       0.000       0.000      3.1710E-10
       3.1710E-10  3.1710E-10  3.1710E-10  3.1710E-10  3.1710E-10  3.1710E-10  3.1710E-10  3.1710E-10



            MULT. ARRAY: R_Mult_9  
 READING ON UNIT   16 WITH FORMAT: (FREE)              

            1           2           3           4           5           6           7           8           9          10
           11          12          13          14          15          16          17          18
 ........................................................................................................................
   1    0.000       0.000       0.000       0.000       0.000       0.000       0.000       0.000       0.000      3.1710E-10
       3.1710E-10  3.1710E-10  3.1710E-10  3.1710E-10  3.1710E-10  3.1710E-10  3.1710E-10  3.1710E-10
   2    0.000       0.000       0.000       0.000       0.000       0.000       0.000       0.000       0.000      3.1710E-10
       3.1710E-10  3.1710E-10  3.1710E-10  3.1710E-10  3.1710E-10  3.1710E-10  3.1710E-10  3.1710E-10
   3    0.000       0.000       0.000       0.000       0.000       0.000       0.000       0.000       0.000      3.1710E-10
       3.1710E-10  3.1710E-10  3.1710E-10  3.1710E-10  3.1710E-10  3.1710E-10  3.1710E-10  3.1710E-10
   4    0.000       0.000       0.000       0.000       0.000       0.000       0.000       0.000       0.000      3.1710E-10
       3.1710E-10  3.1710E-10  3.1710E-10  3.1710E-10  3.1710E-10  3.1710E-10  3.1710E-10  3.1710E-10
   5    0.000       0.000       0.000       0.000       0.000       0.000       0.000       0.000       0.000      3.1710E-10
       3.1710E-10  3.1710E-10  3.1710E-10  3.1710E-10  3.1710E-10  3.1710E-10  3.1710E-10  3.1710E-10
   6    0.000       0.000       0.000       0.000       0.000       0.000       0.000       0.000       0.000      3.1710E-10
       3.1710E-10  3.1710E-10  3.1710E-10  3.1710E-10  3.1710E-10  3.1710E-10  3.1710E-10  3.1710E-10
   7    0.000       0.000       0.000       0.000       0.000       0.000       0.000       0.000       0.000      3.1710E-10
       3.1710E-10  3.1710E-10  3.1710E-10  3.1710E-10  3.1710E-10  3.1710E-10  3.1710E-10  3.1710E-10
   8    0.000       0.000       0.000       0.000       0.000       0.000       0.000       0.000       0.000      3.1710E-10
       3.1710E-10  3.1710E-10  3.1710E-10  3.1710E-10  3.1710E-10  3.1710E-10  3.1710E-10  3.1710E-10
   9    0.000       0.000       0.000       0.000       0.000       0.000       0.000       0.000       0.000      3.1710E-10
       3.1710E-10  3.1710E-10  3.1710E-10  3.1710E-10  3.1710E-10  3.1710E-10  3.1710E-10  3.1710E-10
  10    0.000       0.000       0.000       0.000       0.000       0.000       0.000       0.000       0.000      3.1710E-10
       3.1710E-10  3.1710E-10  3.1710E-10  3.1710E-10  3.1710E-10  3.1710E-10  3.1710E-10  3.1710E-10
  11    0.000       0.000       0.000       0.000       0.000       0.000       0.000       0.000       0.000      3.1710E-10
       3.1710E-10  3.1710E-10  3.1710E-10  3.1710E-10  3.1710E-10  3.1710E-10  3.1710E-10  3.1710E-10
  12    0.000       0.000       0.000       0.000       0.000       0.000       0.000       0.000       0.000      3.1710E-10
       3.1710E-10  3.1710E-10  3.1710E-10  3.1710E-10  3.1710E-10  3.1710E-10  3.1710E-10  3.1710E-10
  13    0.000       0.000       0.000       0.000       0.000       0.000       0.000       0.000       0.000      3.1710E-10
       3.1710E-10  3.1710E-10  3.1710E-10  3.1710E-10  3.1710E-10  3.1710E-10  3.1710E-10  3.1710E-10
  14    0.000       0.000       0.000       0.000       0.000       0.000       0.000       0.000       0.000      3.1710E-10
       3.1710E-10  3.1710E-10  3.1710E-10  3.1710E-10  3.1710E-10  3.1710E-10  3.1710E-10  3.1710E-10
  15    0.000       0.000       0.000       0.000       0.000       0.000       0.000       0.000       0.000      3.1710E-10
       3.1710E-10  3.1710E-10  3.1710E-10  3.1710E-10  3.1710E-10  3.1710E-10  3.1710E-10  3.1710E-10
  16    0.000       0.000       0.000       0.000       0.000       0.000       0.000       0.000       0.000      3.1710E-10
       3.1710E-10  3.1710E-10  3.1710E-10  3.1710E-10  3.1710E-10  3.1710E-10  3.1710E-10  3.1710E-10
  17    0.000       0.000       0.000       0.000       0.000       0.000       0.000       0.000       0.000      3.1710E-10
       3.1710E-10  3.1710E-10  3.1710E-10  3.1710E-10  3.1710E-10  3.1710E-10  3.1710E-10  3.1710E-10
  18    0.000       0.000       0.000       0.000       0.000       0.000       0.000       0.000       0.000      3.1710E-10
       3.1710E-10  3.1710E-10  3.1710E-10  3.1710E-10  3.1710E-10  3.1710E-10  3.1710E-10  3.1710E-10



            MULT. ARRAY: R_Mult_10 
 READING ON UNIT   16 WITH FORMAT: (FREE)              

            1           2           3           4           5           6           7           8           9          10
           11          12          13          14          15          16          17          18
 ........................................................................................................................
   1    0.000       0.000       0.000       0.000       0.000       0.000       0.000       0.000       0.000      3.1710E-10
       3.1710E-10  3.1710E-10  3.1710E-10  3.1710E-10  3.1710E-10  3.1710E-10  3.1710E-10  3.1710E-10
   2    0.000       0.000       0.000       0.000       0.000       0.000       0.000       0.000       0.000      3.1710E-10
       3.1710E-10  3.1710E-10  3.1710E-10  3.1710E-10  3.1710E-10  3.1710E-10  3.1710E-10  3.1710E-10
   3    0.000       0.000       0.000       0.000       0.000       0.000       0.000       0.000       0.000      3.1710E-10
       3.1710E-10  3.1710E-10  3.1710E-10  3.1710E-10  3.1710E-10  3.1710E-10  3.1710E-10  3.1710E-10
   4    0.000       0.000       0.000       0.000       0.000       0.000       0.000       0.000       0.000      3.1710E-10
       3.1710E-10  3.1710E-10  3.1710E-10  3.1710E-10  3.1710E-10  3.1710E-10  3.1710E-10  3.1710E-10
   5    0.000       0.000       0.000       0.000       0.000       0.000       0.000       0.000       0.000      3.1710E-10
       3.1710E-10  3.1710E-10  3.1710E-10  3.1710E-10  3.1710E-10  3.1710E-10  3.1710E-10  3.1710E-10
   6    0.000       0.000       0.000       0.000       0.000       0.000       0.000       0.000       0.000      3.1710E-10
       3.1710E-10  3.1710E-10  3.1710E-10  3.1710E-10  3.1710E-10  3.1710E-10  3.1710E-10  3.1710E-10
   7    0.000       0.000       0.000       0.000       0.000       0.000       0.000       0.000       0.000      3.1710E-10
       3.1710E-10  3.1710E-10  3.1710E-10  3.1710E-10  3.1710E-10  3.1710E-10  3.1710E-10  3.1710E-10
   8    0.000       0.000       0.000       0.000       0.000       0.000       0.000       0.000       0.000      3.1710E-10
       3.1710E-10  3.1710E-10  3.1710E-10  3.1710E-10  3.1710E-10  3.1710E-10  3.1710E-10  3.1710E-10
   9    0.000       0.000       0.000       0.000       0.000       0.000       0.000       0.000       0.000      3.1710E-10
       3.1710E-10  3.1710E-10  3.1710E-10  3.1710E-10  3.1710E-10  3.1710E-10  3.1710E-10  3.1710E-10
  10    0.000       0.000       0.000       0.000       0.000       0.000       0.000       0.000       0.000      3.1710E-10
       3.1710E-10  3.1710E-10  3.1710E-10  3.1710E-10  3.1710E-10  3.1710E-10  3.1710E-10  3.1710E-10
  11    0.000       0.000       0.000       0.000       0.000       0.000       0.000       0.000       0.000      3.1710E-10
       3.1710E-10  3.1710E-10  3.1710E-10  3.1710E-10  3.1710E-10  3.1710E-10  3.1710E-10  3.1710E-10
  12    0.000       0.000       0.000       0.000       0.000       0.000       0.000       0.000       0.000      3.1710E-10
       3.1710E-10  3.1710E-10  3.1710E-10  3.1710E-10  3.1710E-10  3.1710E-10  3.1710E-10  3.1710E-10
  13    0.000       0.000       0.000       0.000       0.000       0.000       0.000       0.000       0.000      3.1710E-10
       3.1710E-10  3.1710E-10  3.1710E-10  3.1710E-10  3.1710E-10  3.1710E-10  3.1710E-10  3.1710E-10
  14    0.000       0.000       0.000       0.000       0.000       0.000       0.000       0.000       0.000      3.1710E-10
       3.1710E-10  3.1710E-10  3.1710E-10  3.1710E-10  3.1710E-10  3.1710E-10  3.1710E-10  3.1710E-10
  15    0.000       0.000       0.000       0.000       0.000       0.000       0.000       0.000       0.000      3.1710E-10
       3.1710E-10  3.1710E-10  3.1710E-10  3.1710E-10  3.1710E-10  3.1710E-10  3.1710E-10  3.1710E-10
  16    0.000       0.000       0.000       0.000       0.000       0.000       0.000       0.000       0.000      3.1710E-10
       3.1710E-10  3.1710E-10  3.1710E-10  3.1710E-10  3.1710E-10  3.1710E-10  3.1710E-10  3.1710E-10
  17    0.000       0.000       0.000       0.000       0.000       0.000       0.000       0.000       0.000      3.1710E-10
       3.1710E-10  3.1710E-10  3.1710E-10  3.1710E-10  3.1710E-10  3.1710E-10  3.1710E-10  3.1710E-10
  18    0.000       0.000       0.000       0.000       0.000       0.000       0.000       0.000       0.000      3.1710E-10
       3.1710E-10  3.1710E-10  3.1710E-10  3.1710E-10  3.1710E-10  3.1710E-10  3.1710E-10  3.1710E-10

   ZONE ARRAY: SS_1_Z1    =              1

   ZONE ARRAY: HK_1_Z1    =              1

   ZONE ARRAY: VERT_AN_Z1 =              1

   ZONE ARRAY: SS_2_Z2    =              1

   ZONE ARRAY: HK_2_Z2    =              1

   ZONE ARRAY: ZONE_22    =              1



             ZONE ARRAY: R_Zone_1  
 READING ON UNIT   15 WITH FORMAT: (FREE)              

          1     2     3     4     5     6     7     8     9    10    11    12    13    14    15    16    17    18
 ................................................................................................................
   1      1     1     1     1     1     1     1     1     1     0     0     0     0     0     0     0     0     0
   2      1     1     1     1     1     1     1     1     1     0     0     0     0     0     0     0     0     0
   3      1     1     1     1     1     1     1     1     1     0     0     0     0     0     0     0     0     0
   4      1     1     1     1     1     1     1     1     1     0     0     0     0     0     0     0     0     0
   5      1     1     1     1     1     1     1     1     1     0     0     0     0     0     0     0     0     0
   6      1     1     1     1     1     1     1     1     1     0     0     0     0     0     0     0     0     0
   7      1     1     1     1     1     1     1     1     1     0     0     0     0     0     0     0     0     0
   8      1     1     1     1     1     1     1     1     1     0     0     0     0     0     0     0     0     0
   9      1     1     1     1     1     1     1     1     1     0     0     0     0     0     0     0     0     0
  10      1     1     1     1     1     1     1     1     1     0     0     0     0     0     0     0     0     0
  11      1     1     1     1     1     1     1     1     1     0     0     0     0     0     0     0     0     0
  12      1     1     1     1     1     1     1     1     1     0     0     0     0     0     0     0     0     0
  13      1     1     1     1     1     1     1     1     1     0     0     0     0     0     0     0     0     0
  14      1     1     1     1     1     1     1     1     1     0     0     0     0     0     0     0     0     0
  15      1     1     1     1     1     1     1     1     1     0     0     0     0     0     0     0     0     0
  16      1     1     1     1     1     1     1     1     1     0     0     0     0     0     0     0     0     0
  17      1     1     1     1     1     1     1     1     1     0     0     0     0     0     0     0     0     0
  18      1     1     1     1     1     1     1     1     1     0     0     0     0     0     0     0     0     0



             ZONE ARRAY: R_Zone_2  
 READING ON UNIT   15 WITH FORMAT: (FREE)              

          1     2     3     4     5     6     7     8     9    10    11    12    13    14    15    16    17    18
 ................................................................................................................
   1      1     1     1     1     1     1     1     1     1     0     0     0     0     0     0     0     0     0
   2      1     1     1     1     1     1     1     1     1     0     0     0     0     0     0     0     0     0
   3      1     1     1     1     1     1     1     1     1     0     0     0     0     0     0     0     0     0
   4      1     1     1     1     1     1     1     1     1     0     0     0     0     0     0     0     0     0
   5      1     1     1     1     1     1     1     1     1     0     0     0     0     0     0     0     0     0
   6      1     1     1     1     1     1     1     1     1     0     0     0     0     0     0     0     0     0
   7      1     1     1     1     1     1     1     1     1     0     0     0     0     0     0     0     0     0
   8      1     1     1     1     1     1     1     1     1     0     0     0     0     0     0     0     0     0
   9      1     1     1     1     1     1     1     1     1     0     0     0     0     0     0     0     0     0
  10      1     1     1     1     1     1     1     1     1     0     0     0     0     0     0     0     0     0
  11      1     1     1     1     1     1     1     1     1     0     0     0     0     0     0     0     0     0
  12      1     1     1     1     1     1     1     1     1     0     0     0     0     0     0     0     0     0
  13      1     1     1     1     1     1     1     1     1     0     0     0     0     0     0     0     0     0
  14      1     1     1     1     1     1     1     1     1     0     0     0     0     0     0     0     0     0
  15      1     1     1     1     1     1     1     1     1     0     0     0     0     0     0     0     0     0
  16      1     1     1     1     1     1     1     1     1     0     0     0     0     0     0     0     0     0
  17      1     1     1     1     1     1     1     1     1     0     0     0     0     0     0     0     0     0
  18      1     1     1     1     1     1     1     1     1     0     0     0     0     0     0     0     0     0



             ZONE ARRAY: R_Zone_3  
 READING ON UNIT   15 WITH FORMAT: (FREE)              

          1     2     3     4     5     6     7     8     9    10    11    12    13    14    15    16    17    18
 ................................................................................................................
   1      1     1     1     1     1     1     1     1     1     0     0     0     0     0     0     0     0     0
   2      1     1     1     1     1     1     1     1     1     0     0     0     0     0     0     0     0     0
   3      1     1     1     1     1     1     1     1     1     0     0     0     0     0     0     0     0     0
   4      1     1     1     1     1     1     1     1     1     0     0     0     0     0     0     0     0     0
   5      1     1     1     1     1     1     1     1     1     0     0     0     0     0     0     0     0     0
   6      1     1     1     1     1     1     1     1     1     0     0     0     0     0     0     0     0     0
   7      1     1     1     1     1     1     1     1     1     0     0     0     0     0     0     0     0     0
   8      1     1     1     1     1     1     1     1     1     0     0     0     0     0     0     0     0     0
   9      1     1     1     1     1     1     1     1     1     0     0     0     0     0     0     0     0     0
  10      1     1     1     1     1     1     1     1     1     0     0     0     0     0     0     0     0     0
  11      1     1     1     1     1     1     1     1     1     0     0     0     0     0     0     0     0     0
  12      1     1     1     1     1     1     1     1     1     0     0     0     0     0     0     0     0     0
  13      1     1     1     1     1     1     1     1     1     0     0     0     0     0     0     0     0     0
  14      1     1     1     1     1     1     1     1     1     0     0     0     0     0     0     0     0     0
  15      1     1     1     1     1     1     1     1     1     0     0     0     0     0     0     0     0     0
  16      1     1     1     1     1     1     1     1     1     0     0     0     0     0     0     0     0     0
  17      1     1     1     1     1     1     1     1     1     0     0     0     0     0     0     0     0     0
  18      1     1     1     1     1     1     1     1     1     0     0     0     0     0     0     0     0     0



             ZONE ARRAY: R_Zone_4  
 READING ON UNIT   15 WITH FORMAT: (FREE)              

          1     2     3     4     5     6     7     8     9    10    11    12    13    14    15    16    17    18
 ................................................................................................................
   1      1     1     1     1     1     1     1     1     1     0     0     0     0     0     0     0     0     0
   2      1     1     1     1     1     1     1     1     1     0     0     0     0     0     0     0     0     0
   3      1     1     1     1     1     1     1     1     1     0     0     0     0     0     0     0     0     0
   4      1     1     1     1     1     1     1     1     1     0     0     0     0     0     0     0     0     0
   5      1     1     1     1     1     1     1     1     1     0     0     0     0     0     0     0     0     0
   6      1     1     1     1     1     1     1     1     1     0     0     0     0     0     0     0     0     0
   7      1     1     1     1     1     1     1     1     1     0     0     0     0     0     0     0     0     0
   8      1     1     1     1     1     1     1     1     1     0     0     0     0     0     0     0     0     0
   9      1     1     1     1     1     1     1     1     1     0     0     0     0     0     0     0     0     0
  10      1     1     1     1     1     1     1     1     1     0     0     0     0     0     0     0     0     0
  11      1     1     1     1     1     1     1     1     1     0     0     0     0     0     0     0     0     0
  12      1     1     1     1     1     1     1     1     1     0     0     0     0     0     0     0     0     0
  13      1     1     1     1     1     1     1     1     1     0     0     0     0     0     0     0     0     0
  14      1     1     1     1     1     1     1     1     1     0     0     0     0     0     0     0     0     0
  15      1     1     1     1     1     1     1     1     1     0     0     0     0     0     0     0     0     0
  16      1     1     1     1     1     1     1     1     1     0     0     0     0     0     0     0     0     0
  17      1     1     1     1     1     1     1     1     1     0     0     0     0     0     0     0     0     0
  18      1     1     1     1     1     1     1     1     1     0     0     0     0     0     0     0     0     0



             ZONE ARRAY: R_Zone_5  
 READING ON UNIT   15 WITH FORMAT: (FREE)              

          1     2     3     4     5     6     7     8     9    10    11    12    13    14    15    16    17    18
 ................................................................................................................
   1      1     1     1     1     1     1     1     1     1     0     0     0     0     0     0     0     0     0
   2      1     1     1     1     1     1     1     1     1     0     0     0     0     0     0     0     0     0
   3      1     1     1     1     1     1     1     1     1     0     0     0     0     0     0     0     0     0
   4      1     1     1     1     1     1     1     1     1     0     0     0     0     0     0     0     0     0
   5      1     1     1     1     1     1     1     1     1     0     0     0     0     0     0     0     0     0
   6      1     1     1     1     1     1     1     1     1     0     0     0     0     0     0     0     0     0
   7      1     1     1     1     1     1     1     1     1     0     0     0     0     0     0     0     0     0
   8      1     1     1     1     1     1     1     1     1     0     0     0     0     0     0     0     0     0
   9      1     1     1     1     1     1     1     1     1     0     0     0     0     0     0     0     0     0
  10      1     1     1     1     1     1     1     1     1     0     0     0     0     0     0     0     0     0
  11      1     1     1     1     1     1     1     1     1     0     0     0     0     0     0     0     0     0
  12      1     1     1     1     1     1     1     1     1     0     0     0     0     0     0     0     0     0
  13      1     1     1     1     1     1     1     1     1     0     0     0     0     0     0     0     0     0
  14      1     1     1     1     1     1     1     1     1     0     0     0     0     0     0     0     0     0
  15      1     1     1     1     1     1     1     1     1     0     0     0     0     0     0     0     0     0
  16      1     1     1     1     1     1     1     1     1     0     0     0     0     0     0     0     0     0
  17      1     1     1     1     1     1     1     1     1     0     0     0     0     0     0     0     0     0
  18      1     1     1     1     1     1     1     1     1     0     0     0     0     0     0     0     0     0



             ZONE ARRAY: R_Zone_6  
 READING ON UNIT   15 WITH FORMAT: (FREE)              

          1     2     3     4     5     6     7     8     9    10    11    12    13    14    15    16    17    18
 ................................................................................................................
   1      0     0     0     0     0     0     0     0     0     1     1     1     1     1     1     1     1     1
   2      0     0     0     0     0     0     0     0     0     1     1     1     1     1     1     1     1     1
   3      0     0     0     0     0     0     0     0     0     1     1     1     1     1     1     1     1     1
   4      0     0     0     0     0     0     0     0     0     1     1     1     1     1     1     1     1     1
   5      0     0     0     0     0     0     0     0     0     1     1     1     1     1     1     1     1     1
   6      0     0     0     0     0     0     0     0     0     1     1     1     1     1     1     1     1     1
   7      0     0     0     0     0     0     0     0     0     1     1     1     1     1     1     1     1     1
   8      0     0     0     0     0     0     0     0     0     1     1     1     1     1     1     1     1     1
   9      0     0     0     0     0     0     0     0     0     1     1     1     1     1     1     1     1     1
  10      0     0     0     0     0     0     0     0     0     1     1     1     1     1     1     1     1     1
  11      0     0     0     0     0     0     0     0     0     1     1     1     1     1     1     1     1     1
  12      0     0     0     0     0     0     0     0     0     1     1     1     1     1     1     1     1     1
  13      0     0     0     0     0     0     0     0     0     1     1     1     1     1     1     1     1     1
  14      0     0     0     0     0     0     0     0     0     1     1     1     1     1     1     1     1     1
  15      0     0     0     0     0     0     0     0     0     1     1     1     1     1     1     1     1     1
  16      0     0     0     0     0     0     0     0     0     1     1     1     1     1     1     1     1     1
  17      0     0     0     0     0     0     0     0     0     1     1     1     1     1     1     1     1     1
  18      0     0     0     0     0     0     0     0     0     1     1     1     1     1     1     1     1     1



             ZONE ARRAY: R_Zone_7  
 READING ON UNIT   15 WITH FORMAT: (FREE)              

          1     2     3     4     5     6     7     8     9    10    11    12    13    14    15    16    17    18
 ................................................................................................................
   1      0     0     0     0     0     0     0     0     0     1     1     1     1     1     1     1     1     1
   2      0     0     0     0     0     0     0     0     0     1     1     1     1     1     1     1     1     1
   3      0     0     0     0     0     0     0     0     0     1     1     1     1     1     1     1     1     1
   4      0     0     0     0     0     0     0     0     0     1     1     1     1     1     1     1     1     1
   5      0     0     0     0     0     0     0     0     0     1     1     1     1     1     1     1     1     1
   6      0     0     0     0     0     0     0     0     0     1     1     1     1     1     1     1     1     1
   7      0     0     0     0     0     0     0     0     0     1     1     1     1     1     1     1     1     1
   8      0     0     0     0     0     0     0     0     0     1     1     1     1     1     1     1     1     1
   9      0     0     0     0     0     0     0     0     0     1     1     1     1     1     1     1     1     1
  10      0     0     0     0     0     0     0     0     0     1     1     1     1     1     1     1     1     1
  11      0     0     0     0     0     0     0     0     0     1     1     1     1     1     1     1     1     1
  12      0     0     0     0     0     0     0     0     0     1     1     1     1     1     1     1     1     1
  13      0     0     0     0     0     0     0     0     0     1     1     1     1     1     1     1     1     1
  14      0     0     0     0     0     0     0     0     0     1     1     1     1     1     1     1     1     1
  15      0     0     0     0     0     0     0     0     0     1     1     1     1     1     1     1     1     1
  16      0     0     0     0     0     0     0     0     0     1     1     1     1     1     1     1     1     1
  17      0     0     0     0     0     0     0     0     0     1     1     1     1     1     1     1     1     1
  18      0     0     0     0     0     0     0     0     0     1     1     1     1     1     1     1     1     1



             ZONE ARRAY: R_Zone_8  
 READING ON UNIT   15 WITH FORMAT: (FREE)              

          1     2     3     4     5     6     7     8     9    10    11    12    13    14    15    16    17    18
 ................................................................................................................
   1      0     0     0     0     0     0     0     0     0     1     1     1     1     1     1     1     1     1
   2      0     0     0     0     0     0     0     0     0     1     1     1     1     1     1     1     1     1
   3      0     0     0     0     0     0     0     0     0     1     1     1     1     1     1     1     1     1
   4      0     0     0     0     0     0     0     0     0     1     1     1     1     1     1     1     1     1
   5      0     0     0     0     0     0     0     0     0     1     1     1     1     1     1     1     1     1
   6      0     0     0     0     0     0     0     0     0     1     1     1     1     1     1     1     1     1
   7      0     0     0     0     0     0     0     0     0     1     1     1     1     1     1     1     1     1
   8      0     0     0     0     0     0     0     0     0     1     1     1     1     1     1     1     1     1
   9      0     0     0     0     0     0     0     0     0     1     1     1     1     1     1     1     1     1
  10      0     0     0     0     0     0     0     0     0     1     1     1     1     1     1     1     1     1
  11      0     0     0     0     0     0     0     0     0     1     1     1     1     1     1     1     1     1
  12      0     0     0     0     0     0     0     0     0     1     1     1     1     1     1     1     1     1
  13      0     0     0     0     0     0     0     0     0     1     1     1     1     1     1     1     1     1
  14      0     0     0     0     0     0     0     0     0     1     1     1     1     1     1     1     1     1
  15      0     0     0     0     0     0     0     0     0     1     1     1     1     1     1     1     1     1
  16      0     0     0     0     0     0     0     0     0     1     1     1     1     1     1     1     1     1
  17      0     0     0     0     0     0     0     0     0     1     1     1     1     1     1     1     1     1
[...]
            RECHARGE =    51492800.0000              RECHARGE =           4.2474

            TOTAL IN =    51492804.0000              TOTAL IN =           4.2474

          OUT:                                     OUT:
          ----                                     ----
             STORAGE =     6549218.5000               STORAGE =           0.1983
       CONSTANT HEAD =           0.0000         CONSTANT HEAD =           0.0000
               WELLS =     7273988.0000                 WELLS =           0.6000
       RIVER LEAKAGE =    37669376.0000         RIVER LEAKAGE =           3.4493
     HEAD DEP BOUNDS =           0.0000       HEAD DEP BOUNDS =           0.0000
            RECHARGE =           0.0000              RECHARGE =           0.0000

           TOTAL OUT =    51492584.0000             TOTAL OUT =           4.2475

            IN - OUT =         220.0000              IN - OUT =      -1.2684E-04

 PERCENT DISCREPANCY =           0.00     PERCENT DISCREPANCY =           0.00






          TIME SUMMARY AT END OF TIME STEP   6 IN STRESS PERIOD    5
                    SECONDS     MINUTES      HOURS       DAYS        YEARS
                    -----------------------------------------------------------
   TIME STEP LENGTH 2.81954E+06  46992.      783.21      32.634     8.93459E-02
 STRESS PERIOD TIME 1.12517E+07 1.87528E+05  3125.5      130.23     0.35654    
         TOTAL TIME 1.21233E+07 2.02055E+05  3367.6      140.32     0.38416    
1
 
 SOLVING FOR HEAD 

 OUTPUT CONTROL FOR STRESS PERIOD    5   TIME STEP   7
    SAVE BUDGET
    PRINT BUDGET
 UBDSV1 SAVING "         STORAGE" ON UNIT   9 AT TIME STEP  7, STRESS PERIOD   5
 UBDSV2 SAVING "   CONSTANT HEAD" ON UNIT   9 AT TIME STEP  7, STRESS PERIOD   5
 UBDSV1 SAVING "FLOW RIGHT FACE " ON UNIT   9 AT TIME STEP  7, STRESS PERIOD   5
 UBDSV1 SAVING "FLOW FRONT FACE " ON UNIT   9 AT TIME STEP  7, STRESS PERIOD   5
 UBDSV1 SAVING "FLOW LOWER FACE " ON UNIT   9 AT TIME STEP  7, STRESS PERIOD   5
 UBDSV4 SAVING "           WELLS" ON UNIT   9 AT TIME STEP  7, STRESS PERIOD   5
 UBDSV4 SAVING "   RIVER LEAKAGE" ON UNIT   9 AT TIME STEP  7, STRESS PERIOD   5
 UBDSV4 SAVING " HEAD DEP BOUNDS" ON UNIT   9 AT TIME STEP  7, STRESS PERIOD   5
 UBDSV3 SAVING "        RECHARGE" ON UNIT   9 AT TIME STEP  7, STRESS PERIOD   5
1
  VOLUMETRIC BUDGET FOR ENTIRE MODEL AT END OF TIME STEP  7 IN STRESS PERIOD   5
  ------------------------------------------------------------------------------

     CUMULATIVE VOLUMES      L**3       RATES FOR THIS TIME STEP      L**3/T
     ------------------                 ------------------------

           IN:                                      IN:
           ---                                      ---
             STORAGE =           5.0839               STORAGE =           0.0000
       CONSTANT HEAD =           0.0000         CONSTANT HEAD =           0.0000
               WELLS =           0.0000                 WELLS =           0.0000
       RIVER LEAKAGE =           0.0000         RIVER LEAKAGE =           0.0000
     HEAD DEP BOUNDS =       7.6016E-04       HEAD DEP BOUNDS =           0.0000
            RECHARGE =    65863728.0000              RECHARGE =           4.2474

            TOTAL IN =    65863732.0000              TOTAL IN =           4.2474

          OUT:                                     OUT:
          ----                                     ----
             STORAGE =     6957068.0000               STORAGE =           0.1205
       CONSTANT HEAD =           0.0000         CONSTANT HEAD =           0.0000
               WELLS =     9304058.0000                 WELLS =           0.6000
       RIVER LEAKAGE =    49601860.0000         RIVER LEAKAGE =           3.5267
     HEAD DEP BOUNDS =           0.0000       HEAD DEP BOUNDS =           0.0000
            RECHARGE =           0.0000              RECHARGE =           0.0000

           TOTAL OUT =    65862984.0000             TOTAL OUT =           4.2473

            IN - OUT =         748.0000              IN - OUT =       1.5497E-04

 PERCENT DISCREPANCY =           0.00     PERCENT DISCREPANCY =           0.00






          TIME SUMMARY AT END OF TIME STEP   7 IN STRESS PERIOD    5
                    SECONDS     MINUTES      HOURS       DAYS        YEARS
                    -----------------------------------------------------------
   TIME STEP LENGTH 3.38345E+06  56391.      939.85      39.160     0.10722    
 STRESS PERIOD TIME 1.46351E+07 2.43919E+05  4065.3      169.39     0.46376    
         TOTAL TIME 1.55068E+07 2.58446E+05  4307.4      179.48     0.49138    
1
 
 SOLVING FOR HEAD 

 OUTPUT CONTROL FOR STRESS PERIOD    5   TIME STEP   8
    SAVE BUDGET
    PRINT BUDGET
 UBDSV1 SAVING "         STORAGE" ON UNIT   9 AT TIME STEP  8, STRESS PERIOD   5
 UBDSV2 SAVING "   CONSTANT HEAD" ON UNIT   9 AT TIME STEP  8, STRESS PERIOD   5
 UBDSV1 SAVING "FLOW RIGHT FACE " ON UNIT   9 AT TIME STEP  8, STRESS PERIOD   5
 UBDSV1 SAVING "FLOW FRONT FACE " ON UNIT   9 AT TIME STEP  8, STRESS PERIOD   5
 UBDSV1 SAVING "FLOW LOWER FACE " ON UNIT   9 AT TIME STEP  8, STRESS PERIOD   5
 UBDSV4 SAVING "           WELLS" ON UNIT   9 AT TIME STEP  8, STRESS PERIOD   5
 UBDSV4 SAVING "   RIVER LEAKAGE" ON UNIT   9 AT TIME STEP  8, STRESS PERIOD   5
 UBDSV4 SAVING " HEAD DEP BOUNDS" ON UNIT   9 AT TIME STEP  8, STRESS PERIOD   5
 UBDSV3 SAVING "        RECHARGE" ON UNIT   9 AT TIME STEP  8, STRESS PERIOD   5
1
  VOLUMETRIC BUDGET FOR ENTIRE MODEL AT END OF TIME STEP  8 IN STRESS PERIOD   5
  ------------------------------------------------------------------------------

     CUMULATIVE VOLUMES      L**3       RATES FOR THIS TIME STEP      L**3/T
     ------------------                 ------------------------

           IN:                                      IN:
           ---                                      ---
             STORAGE =           5.0839               STORAGE =           0.0000
       CONSTANT HEAD =           0.0000         CONSTANT HEAD =           0.0000
               WELLS =           0.0000                 WELLS =           0.0000
       RIVER LEAKAGE =           0.0000         RIVER LEAKAGE =           0.0000
     HEAD DEP BOUNDS =       7.6016E-04       HEAD DEP BOUNDS =           0.0000
            RECHARGE =    83108840.0000              RECHARGE =           4.2474

            TOTAL IN =    83108848.0000              TOTAL IN =           4.2474

          OUT:                                     OUT:
          ----                                     ----
             STORAGE =     7232964.0000               STORAGE =       6.7952E-02
       CONSTANT HEAD =           0.0000         CONSTANT HEAD =           0.0000
               WELLS =    11740142.0000                 WELLS =           0.6000
       RIVER LEAKAGE =    64134184.0000         RIVER LEAKAGE =           3.5793
     HEAD DEP BOUNDS =           0.0000       HEAD DEP BOUNDS =           0.0000
            RECHARGE =           0.0000              RECHARGE =           0.0000

           TOTAL OUT =    83107288.0000             TOTAL OUT =           4.2472

            IN - OUT =        1560.0000              IN - OUT =       1.9932E-04

 PERCENT DISCREPANCY =           0.00     PERCENT DISCREPANCY =           0.00






          TIME SUMMARY AT END OF TIME STEP   8 IN STRESS PERIOD    5
                    SECONDS     MINUTES      HOURS       DAYS        YEARS
                    -----------------------------------------------------------
   TIME STEP LENGTH 4.06014E+06  67669.      1127.8      46.992     0.12866    
 STRESS PERIOD TIME 1.86953E+07 3.11588E+05  5193.1      216.38     0.59242    
         TOTAL TIME 1.95669E+07 3.26115E+05  5435.3      226.47     0.62004    
1
 
 SOLVING FOR HEAD 

 OUTPUT CONTROL FOR STRESS PERIOD    5   TIME STEP   9
    PRINT HEAD FOR ALL LAYERS
    SAVE HEAD FOR ALL LAYERS
    SAVE BUDGET
    PRINT BUDGET
 UBDSV1 SAVING "         STORAGE" ON UNIT   9 AT TIME STEP  9, STRESS PERIOD   5
 UBDSV2 SAVING "   CONSTANT HEAD" ON UNIT   9 AT TIME STEP  9, STRESS PERIOD   5
 UBDSV1 SAVING "FLOW RIGHT FACE " ON UNIT   9 AT TIME STEP  9, STRESS PERIOD   5
 UBDSV1 SAVING "FLOW FRONT FACE " ON UNIT   9 AT TIME STEP  9, STRESS PERIOD   5
 UBDSV1 SAVING "FLOW LOWER FACE " ON UNIT   9 AT TIME STEP  9, STRESS PERIOD   5
 UBDSV4 SAVING "           WELLS" ON UNIT   9 AT TIME STEP  9, STRESS PERIOD   5
 UBDSV4 SAVING "   RIVER LEAKAGE" ON UNIT   9 AT TIME STEP  9, STRESS PERIOD   5
 UBDSV4 SAVING " HEAD DEP BOUNDS" ON UNIT   9 AT TIME STEP  9, STRESS PERIOD   5
 UBDSV3 SAVING "        RECHARGE" ON UNIT   9 AT TIME STEP  9, STRESS PERIOD   5
1
              HEAD IN LAYER   1 AT END OF TIME STEP   9 IN STRESS PERIOD    5
  ---------------------------------------------------------------------------

          1      2      3      4      5      6      7      8      9     10
 .........................................................................
   1  100.15 108.49 116.05 122.79 128.89 134.37 139.34 143.83 147.91 151.62
   2  100.15 108.48 116.03 122.76 128.85 134.31 139.27 143.74 147.81 151.52
   3  100.15 108.46 115.99 122.69 128.76 134.20 139.12 143.56 147.61 151.31
   4  100.15 108.43 115.93 122.60 128.63 134.02 138.89 143.29 147.29 150.99
   5  100.15 108.40 115.86 122.50 128.47 133.80 138.59 142.90 146.84 150.50
   6  100.15 108.36 115.79 122.38 128.30 133.54 138.23 142.40 146.19 149.79
   7  100.15 108.33 115.73 122.28 128.13 133.29 137.83 141.79 145.31 148.68
   8  100.15 108.32 115.69 122.21 128.02 133.09 137.48 141.16 144.15 146.78
   9  100.15 108.31 115.68 122.19 127.98 133.02 137.33 140.77 143.00 142.77
  10  100.15 108.32 115.71 122.23 128.04 133.12 137.52 141.20 144.19 146.82
  11  100.15 108.35 115.76 122.32 128.19 133.36 137.91 141.88 145.40 148.78
  12  100.15 108.39 115.84 122.45 128.38 133.65 138.34 142.53 146.33 149.93
  13  100.15 108.43 115.93 122.59 128.59 133.94 138.75 143.07 147.02 150.69
  14  100.15 108.47 116.01 122.72 128.78 134.20 139.09 143.51 147.53 151.23
  15  100.15 108.51 116.09 122.84 128.94 134.42 139.37 143.84 147.90 151.62
  16  100.15 108.54 116.15 122.93 129.07 134.58 139.57 144.07 148.17 151.89
  17  100.15 108.56 116.19 122.99 129.15 134.69 139.70 144.23 148.33 152.06
  18  100.15 108.57 116.21 123.02 129.20 134.74 139.77 144.30 148.41 152.14
1
              HEAD IN LAYER   1 AT END OF TIME STEP   9 IN STRESS PERIOD    5
  ---------------------------------------------------------------------------

         11     12     13     14     15     16     17     18
 ...........................................................
   1  154.83 157.57 159.88 161.77 163.25 164.34 165.05 165.40
   2  154.74 157.49 159.81 161.71 163.21 164.30 165.02 165.37
   3  154.54 157.32 159.67 161.60 163.12 164.24 164.97 165.33
   4  154.23 157.06 159.46 161.44 163.00 164.14 164.89 165.26
   5  153.79 156.70 159.19 161.24 162.85 164.03 164.81 165.18
   6  153.17 156.22 158.85 161.01 162.69 163.92 164.72 165.11
   7  152.31 155.65 158.49 160.78 162.55 163.83 164.65 165.06
   8  151.17 155.05 158.17 160.60 162.45 163.76 164.61 165.02
   9  150.05 154.68 158.03 160.55 162.42 163.76 164.61 165.03
  10  151.22 155.10 158.22 160.65 162.50 163.81 164.66 165.07
  11  152.40 155.75 158.59 160.88 162.64 163.92 164.75 165.15
  12  153.31 156.37 159.00 161.16 162.84 164.07 164.87 165.26
  13  153.99 156.90 159.39 161.44 163.05 164.23 165.00 165.38
  14  154.49 157.31 159.72 161.69 163.25 164.39 165.13 165.50
  15  154.85 157.63 159.98 161.91 163.42 164.53 165.25 165.61
  16  155.11 157.86 160.18 162.07 163.55 164.64 165.35 165.70
  17  155.28 158.01 160.31 162.18 163.64 164.72 165.42 165.76
  18  155.36 158.09 160.37 162.23 163.69 164.76 165.46 165.80
1
              HEAD IN LAYER   2 AT END OF TIME STEP   9 IN STRESS PERIOD    5
  ---------------------------------------------------------------------------

          1      2      3      4      5      6      7      8      9     10
 .........................................................................
   1  101.02 108.76 116.38 122.95 129.05 134.44 139.39 143.82 147.86 151.48
   2  101.02 108.75 116.36 122.92 129.00 134.38 139.32 143.73 147.77 151.38
   3  101.02 108.73 116.31 122.85 128.91 134.26 139.17 143.55 147.57 151.17
   4  101.02 108.70 116.26 122.76 128.78 134.09 138.94 143.27 147.25 150.84
   5  101.01 108.66 116.19 122.65 128.62 133.86 138.63 142.88 146.79 150.36
   6  101.01 108.63 116.12 122.54 128.44 133.60 138.26 142.38 146.14 149.64
   7  101.00 108.60 116.05 122.43 128.28 133.34 137.86 141.76 145.23 148.50
   8  101.00 108.58 116.01 122.36 128.16 133.14 137.50 141.09 143.98 146.37
   9  101.00 108.58 116.00 122.34 128.12 133.06 137.34 140.66 142.62 140.92
  10  101.00 108.59 116.03 122.38 128.19 133.17 137.54 141.13 144.03 146.42
  11  101.01 108.62 116.08 122.48 128.34 133.41 137.94 141.84 145.32 148.60
  12  101.01 108.65 116.16 122.60 128.53 133.70 138.38 142.50 146.27 149.78
  13  101.02 108.70 116.25 122.74 128.74 134.00 138.79 143.06 146.97 150.55
  14  101.02 108.74 116.34 122.88 128.93 134.26 139.14 143.50 147.49 151.09
  15  101.03 108.78 116.42 123.00 129.10 134.48 139.42 143.83 147.86 151.48
  16  101.03 108.81 116.48 123.09 129.23 134.65 139.62 144.06 148.12 151.75
  17  101.03 108.83 116.52 123.15 129.31 134.76 139.75 144.22 148.29 151.92
  18  101.03 108.84 116.54 123.19 129.36 134.81 139.82 144.29 148.37 152.00
1
              HEAD IN LAYER   2 AT END OF TIME STEP   9 IN STRESS PERIOD    5
  ---------------------------------------------------------------------------

         11     12     13     14     15     16     17     18
 ...........................................................
   1  154.65 157.35 159.63 161.49 162.95 164.01 164.70 165.04
   2  154.55 157.27 159.56 161.43 162.90 163.98 164.67 165.01
   3  154.36 157.10 159.43 161.32 162.82 163.91 164.62 164.96
   4  154.05 156.84 159.22 161.16 162.70 163.82 164.55 164.90
   5  153.61 156.48 158.94 160.96 162.55 163.71 164.46 164.82
   6  152.99 156.01 158.61 160.73 162.39 163.60 164.38 164.75
   7  152.12 155.44 158.25 160.51 162.25 163.50 164.31 164.69
   8  150.94 154.83 157.94 160.34 162.15 163.44 164.27 164.66
   9  149.67 154.45 157.80 160.28 162.13 163.44 164.27 164.67
  10  150.99 154.88 157.99 160.39 162.20 163.49 164.32 164.71
  11  152.22 155.54 158.35 160.61 162.35 163.60 164.41 164.79
  12  153.13 156.16 158.76 160.88 162.54 163.74 164.52 164.90
  13  153.81 156.68 159.14 161.16 162.75 163.90 164.65 165.02
  14  154.31 157.10 159.47 161.42 162.94 164.06 164.79 165.14
  15  154.67 157.41 159.73 161.63 163.11 164.20 164.91 165.25
  16  154.93 157.64 159.93 161.79 163.25 164.31 165.00 165.34
  17  155.09 157.79 160.06 161.90 163.34 164.39 165.07 165.40
  18  155.17 157.87 160.12 161.96 163.39 164.43 165.11 165.44

 HEAD WILL BE SAVED ON UNIT   37 AT END OF TIME STEP   9, STRESS PERIOD    5
1
  VOLUMETRIC BUDGET FOR ENTIRE MODEL AT END OF TIME STEP  9 IN STRESS PERIOD   5
  ------------------------------------------------------------------------------

     CUMULATIVE VOLUMES      L**3       RATES FOR THIS TIME STEP      L**3/T
     ------------------                 ------------------------

           IN:                                      IN:
           ---                                      ---
             STORAGE =           5.0839               STORAGE =           0.0000
       CONSTANT HEAD =           0.0000         CONSTANT HEAD =           0.0000
               WELLS =           0.0000                 WELLS =           0.0000
       RIVER LEAKAGE =           0.0000         RIVER LEAKAGE =           0.0000
     HEAD DEP BOUNDS =       7.6016E-04       HEAD DEP BOUNDS =           0.0000
            RECHARGE =   103802976.0000              RECHARGE =           4.2474

            TOTAL IN =   103802984.0000              TOTAL IN =           4.2474

          OUT:                                     OUT:
          ----                                     ----
             STORAGE =     7404622.0000               STORAGE =       3.5232E-02
       CONSTANT HEAD =           0.0000         CONSTANT HEAD =           0.0000
               WELLS =    14663442.0000                 WELLS =           0.6000
       RIVER LEAKAGE =    81732944.0000         RIVER LEAKAGE =           3.6121
     HEAD DEP BOUNDS =           0.0000       HEAD DEP BOUNDS =           0.0000
            RECHARGE =           0.0000              RECHARGE =           0.0000

           TOTAL OUT =   103801008.0000             TOTAL OUT =           4.2473

            IN - OUT =        1976.0000              IN - OUT =       8.6784E-05

 PERCENT DISCREPANCY =           0.00     PERCENT DISCREPANCY =           0.00






          TIME SUMMARY AT END OF TIME STEP   9 IN STRESS PERIOD    5
                    SECONDS     MINUTES      HOURS       DAYS        YEARS
                    -----------------------------------------------------------
   TIME STEP LENGTH 4.87217E+06  81203.      1353.4      56.391     0.15439    
 STRESS PERIOD TIME 2.35674E+07 3.92791E+05  6546.5      272.77     0.74681    
         TOTAL TIME 2.44391E+07 4.07318E+05  6788.6      282.86     0.77443    
1

 HEAD AND DRAWDOWN OBSERVATIONS
 OBSERVATION       OBSERVED           SIMULATED
   NAME              VALUE              VALUE             DIFFERENCE
 --------------------------------------------------------------------
 Bp.0            101.80400085        100.09277344        1.7112274170    
 Bp.1          -2.89993286133E-02   7.62939453125E-06  -2.90069580078E-02
 Bp.12         -0.12899780273       5.89599609375E-02  -0.18795776367    
 Cp.0            128.11700439        112.64983368        15.467170715    
 Cp.1          -4.10003662109E-02   9.36889648438E-03  -5.03692626953E-02
 Cp.2          -0.55700683594       0.35991668701      -0.91692352295    
 Cp.8           -11.531005859        8.0976943970       -19.628700256    
 Cp.12          -14.184005737        9.9536895752       -24.137695312    
 Dp.0            156.67799377        115.65057373        41.027420044    
 Dp.1           -4.3809967041        1.5505981445       -5.9315948486    
 Dp.12          -42.539993286        28.539428711       -71.079421997    
 Ep.0            124.89299774        112.59761810        12.295379639    
 Ep.1          -6.70013427734E-02   1.57470703125E-02  -8.27484130859E-02
 Ep.12          -14.304000854        9.9891738892       -24.293174744    
 Fp.0            140.96099854        119.02452087        21.936477661    
 Fp.1          -5.99975585938E-02   3.14102172852E-02  -9.14077758789E-02
 Fp.12          -21.675994873        15.174697876       -36.850692749    
 Gp.0            126.53700256        112.68521881        13.851783752    
 Gp.1           4.99725341797E-03   1.10321044922E-02  -6.03485107422E-03
 Gp.12          -14.365005493        10.075210571       -24.440216064    
 Hp.0            101.11199951        100.54758453       0.56441497803    
 Hp.1           4.80041503906E-02   8.69750976562E-04   4.71343994141E-02
 Hp.12         -0.56800079346       0.45571899414       -1.0237197876    
 Ip.0            158.13499451        115.55096436        42.584030151    
 Ip.1           -5.5329895020        1.9887924194       -7.5217819214    
 Ip.12          -43.216995239        28.475448608       -71.692443848    
 Jp.0            176.37399292        137.78833008        38.585662842    
 Jp.1          -9.91821289063E-04   3.31573486328E-02  -3.41491699219E-02
 Jp.12          -38.241989136        26.923980713       -65.165969849    
 Ap.0            142.02000427        120.88185120        21.138153076    
 Ap.1          -1.30004882812E-02   1.93786621094E-03  -1.49383544922E-02
 Ap.12          -19.921005249        13.931945801       -33.852951050    

 SUM OF SQUARED DIFFERENCE:    2.56909E+04

 Run end date and time (yyyy/mm/dd hh:mm:ss): 2010/05/05 16:19:21
 Elapsed run time:  0.047 Seconds

