@ [ MODPATH 5.0 (TREF=   0.000000E+00 ) ]
  1    1   54    1  9.98473E+01  1.00447E+02 -2.29185E+00  5.00000E-01  2.85708E+09  2.80571E+03  4.16855E+03  5.00000E-01   29   13    1   1     1     11  0.00000E+00
  1    1   54    1  9.98473E+01  1.00447E+02 -2.29185E+00  5.00000E-01  4.17134E+09  2.82568E+03  4.16855E+03  5.00000E-01   29   13    1   1     1     11  0.00000E+00
  1    1   54    1  9.97966E+01  1.00447E+02 -2.29185E+00  5.00000E-01  2.77666E+09  2.84565E+03  4.16855E+03  5.00000E-01   29   13    1   1     1     11  0.00000E+00
  1    1   54    1  9.97966E+01  1.00447E+02 -2.29185E+00  5.00000E-01  2.78028E+09  2.86562E+03  4.16855E+03  5.00000E-01   29   13    1   1     1     11  0.00000E+00
  1    1   54    1  9.98473E+01  1.00447E+02 -2.29185E+00  4.99999E-01  2.65854E+09  2.88559E+03  4.16855E+03  5.00000E-01   29   13    1   1     1     11  0.00000E+00
  1    1   54    1  9.98473E+01  1.00447E+02 -2.29185E+00  5.00000E-01  4.33556E+09  2.90556E+03  4.16855E+03  5.00000E-01   30   13    1   1     1     11  0.00000E+00
  1    1   54    1  9.97966E+01  1.00447E+02 -2.29185E+00  5.00000E-01  3.07007E+09  2.92553E+03  4.16855E+03  5.00000E-01   30   13    1   1     1     11  0.00000E+00
  1    1   54    1  9.98473E+01  1.00447E+02 -2.29185E+00  5.00000E-01  3.23282E+09  2.94549E+03  4.16855E+03  5.00000E-01   30   13    1   1     1     11  0.00000E+00
  1    1   54    1  9.98473E+01  1.00447E+02 -2.29185E+00  5.00000E-01  3.44296E+09  2.96546E+03  4.16855E+03  5.00000E-01   30   13    1   1     1     11  0.00000E+00
  1    1   54    1  9.98473E+01  1.00447E+02 -2.29185E+00  5.00000E-01  3.70050E+09  2.98543E+03  4.16855E+03  5.00000E-01   30   13    1   1     1     11  0.00000E+00
